data/nesta/api/nesta_case3012wp_mp__api.m
%%%%%%%%%%%%%%%%%%%%%%%%%%%%%%%%%%%%%%%%%%%%%%%%%%%%%%%%%%%%%%%%%%%%%%%%%%%
%%%%                                                                  %%%%%
%%%%      NICTA Energy System Test Case Archive (NESTA) - v0.1.5      %%%%%
%%%%            Optimal Power Flow - Active Power Increase            %%%%%
%%%%                       30 - October - 2014                        %%%%%
%%%%                                                                  %%%%%
%%%%%%%%%%%%%%%%%%%%%%%%%%%%%%%%%%%%%%%%%%%%%%%%%%%%%%%%%%%%%%%%%%%%%%%%%%%
function mpc = nesta_case3012wp_mp__api
mpc.version = '2';
mpc.baseMVA = 100.0;

%% area data
%	area	refbus
mpc.areas = [
	1	 1;
];

%% bus data
%	bus_i	type	Pd	Qd	Gs	Bs	area	Vm	Va	baseKV	zone	Vmax	Vmin
mpc.bus = [
	1	 1	 0.00	 0.00	 0.0	 0.0	 1	     1.1069	    -0.3107	 220.0	 1	     1.1100	     0.9500;
	2	 1	 0.00	 0.00	 0.0	 0.0	 1	     1.1079	     1.3812	 220.0	 1	     1.1100	     0.9500;
	3	 1	 0.00	 0.00	 0.0	 0.0	 1	     1.0662	   -30.7548	 220.0	 1	     1.1100	     0.9500;
	4	 1	 0.00	 0.00	 0.0	 0.0	 1	     1.0662	   -30.7638	 220.0	 1	     1.1100	     0.9500;
	5	 1	 0.00	 0.00	 0.0	 0.0	 1	     1.0773	   -32.9975	 220.0	 1	     1.1100	     0.9500;
	6	 1	 0.00	 0.00	 0.0	 0.0	 1	     1.0757	    -6.0732	 220.0	 1	     1.1100	     0.9500;
	7	 1	 0.00	 0.00	 0.0	 0.0	 1	     1.0757	    -6.0744	 220.0	 1	     1.1100	     0.9500;
	8	 1	 0.00	 0.00	 0.0	 0.0	 1	     1.0906	   -18.3769	 220.0	 1	     1.1100	     0.9500;
	9	 1	 0.00	 0.00	 0.0	 0.0	 1	     1.0909	   -18.3605	 220.0	 1	     1.1100	     0.9500;
	10	 1	 0.00	 0.00	 0.0	 0.0	 1	     1.1100	   -21.7821	 220.0	 1	     1.1100	     0.9500;
	11	 1	 0.00	 0.00	 0.0	 0.0	 1	     1.0257	   -13.2068	 400.0	 1	     1.0500	     0.9500;
	12	 1	 0.00	 0.00	 0.0	 0.0	 1	     1.0257	   -13.1980	 400.0	 1	     1.0500	     0.9500;
	13	 1	 0.00	 0.00	 0.0	 0.0	 1	     1.0119	   -17.6136	 400.0	 1	     1.0500	     0.9500;
	14	 1	 0.00	 0.00	 0.0	 0.0	 1	     1.0431	   -18.2096	 220.0	 1	     1.1100	     0.9500;
	15	 1	 0.00	 0.00	 0.0	 0.0	 1	     1.0433	   -18.2057	 220.0	 1	     1.1100	     0.9500;
	16	 1	 0.00	 0.00	 0.0	 0.0	 1	     1.0433	   -18.1957	 220.0	 1	     1.1100	     0.9500;
	17	 1	 0.00	 0.00	 0.0	 0.0	 1	     1.0312	   -22.6182	 220.0	 1	     1.1100	     0.9500;
	18	 1	 0.00	 0.00	 0.0	 0.0	 1	     1.0309	   -22.2417	 220.0	 1	     1.1100	     0.9500;
	19	 1	 0.00	 0.00	 0.0	 0.0	 1	     1.0270	   -11.5654	 400.0	 1	     1.0500	     0.9500;
	20	 1	 0.00	 0.00	 0.0	 0.0	 1	     1.0270	   -11.5554	 400.0	 1	     1.0500	     0.9500;
	21	 1	 0.00	 0.00	 0.0	 0.0	 1	     1.0220	   -21.3013	 400.0	 1	     1.0500	     0.9500;
	22	 1	 0.00	 0.00	 0.0	 0.0	 1	     1.0159	   -17.3338	 400.0	 1	     1.0500	     0.9500;
	23	 1	 0.00	 0.00	 0.0	 0.0	 1	     1.0159	   -17.3338	 400.0	 1	     1.0500	     0.9500;
	24	 2	 11.59	 20.10	 0.0	 0.0	 1	     1.0867	   -25.1625	 220.0	 1	     1.1100	     0.9500;
	25	 2	 11.59	 20.10	 0.0	 0.0	 1	     1.0867	   -25.1622	 220.0	 1	     1.1100	     0.9500;
	26	 1	 0.00	 0.00	 0.0	 0.0	 1	     1.0851	    -5.0889	 220.0	 1	     1.1100	     0.9500;
	27	 1	 0.00	 0.00	 0.0	 0.0	 1	     1.0852	    -5.1028	 220.0	 1	     1.1100	     0.9500;
	28	 1	 0.00	 0.00	 0.0	 0.0	 1	     1.0400	   -20.2276	 220.0	 1	     1.1100	     0.9500;
	29	 1	 0.00	 0.00	 0.0	 0.0	 1	     1.0400	   -20.2253	 220.0	 1	     1.1100	     0.9500;
	30	 1	 0.00	 0.00	 0.0	 0.0	 1	     1.0425	   -17.7034	 220.0	 1	     1.1100	     0.9500;
	31	 1	 0.00	 0.00	 0.0	 0.0	 1	     1.0425	   -17.7163	 220.0	 1	     1.1100	     0.9500;
	32	 1	 0.00	 0.00	 0.0	 0.0	 1	     1.0845	    -2.6769	 220.0	 1	     1.1100	     0.9500;
	33	 1	 0.00	 0.00	 0.0	 0.0	 1	     1.0844	    -2.7009	 220.0	 1	     1.1100	     0.9500;
	34	 1	 0.00	 0.00	 0.0	 0.0	 1	     1.0178	   -15.3612	 400.0	 1	     1.0500	     0.9500;
	35	 1	 0.00	 0.00	 0.0	 0.0	 1	     1.0178	   -15.3663	 400.0	 1	     1.0500	     0.9500;
	36	 1	 0.00	 0.00	 0.0	 0.0	 1	     1.0071	   -18.5486	 400.0	 1	     1.0500	     0.9500;
	37	 3	 56.12	 86.21	 0.0	 0.0	 1	     1.1100	     0.0000	 220.0	 1	     1.1100	     0.9500;
	38	 2	 62.87	 89.93	 0.0	 0.0	 1	     1.1100	     1.6791	 220.0	 1	     1.1100	     0.9500;
	39	 2	 23.17	 40.19	 0.0	 0.0	 1	     1.1100	     1.6712	 220.0	 1	     1.1100	     0.9500;
	40	 2	 69.50	 120.57	 0.0	 0.0	 1	     1.0475	     0.1608	 400.0	 1	     1.0500	     0.9500;
	41	 2	 69.50	 120.57	 0.0	 0.0	 1	     1.0475	     0.1677	 400.0	 1	     1.0500	     0.9500;
	42	 1	 0.00	 0.00	 0.0	 0.0	 1	     1.0320	   -19.5046	 220.0	 1	     1.1100	     0.9500;
	43	 1	 0.00	 0.00	 0.0	 0.0	 1	     1.0319	   -19.5083	 220.0	 1	     1.1100	     0.9500;
	44	 1	 0.00	 0.00	 0.0	 0.0	 1	     1.0500	    -1.4667	 400.0	 1	     1.0500	     0.9500;
	45	 1	 0.00	 0.00	 0.0	 0.0	 1	     1.0500	    -1.4702	 400.0	 1	     1.0500	     0.9500;
	46	 1	 0.00	 0.00	 0.0	 0.0	 1	     1.0396	   -18.5594	 220.0	 1	     1.1100	     0.9500;
	47	 1	 0.00	 0.00	 0.0	 0.0	 1	     1.0603	    -8.3839	 220.0	 1	     1.1100	     0.9500;
	48	 1	 0.00	 0.00	 0.0	 0.0	 1	     1.0603	    -8.4011	 220.0	 1	     1.1100	     0.9500;
	49	 1	 0.00	 0.00	 0.0	 0.0	 1	     1.0929	   -12.1453	 220.0	 2	     1.1100	     0.9500;
	50	 1	 0.00	 0.00	 0.0	 0.0	 1	     1.0912	   -11.7628	 220.0	 2	     1.1100	     0.9500;
	51	 1	 0.00	 0.00	 0.0	 0.0	 1	     1.1037	   -10.1283	 220.0	 2	     1.1100	     0.9500;
	52	 1	 0.00	 0.00	 0.0	 0.0	 1	     1.1036	   -10.1327	 220.0	 2	     1.1100	     0.9500;
	53	 1	 0.00	 0.00	 0.0	 0.0	 1	     1.0723	   -14.1137	 220.0	 2	     1.1100	     0.9500;
	54	 1	 3.72	 1.00	 0.0	 0.0	 1	     1.0996	    -8.9001	 220.0	 2	     1.1100	     0.9500;
	55	 1	 0.00	 0.00	 0.0	 0.0	 1	     1.0997	    -8.8993	 220.0	 2	     1.1100	     0.9500;
	56	 1	 0.00	 0.00	 0.0	 0.0	 1	     1.0360	    -9.0573	 400.0	 2	     1.0500	     0.9500;
	57	 2	 30.11	 60.29	 0.0	 0.0	 1	     1.1017	   -10.2558	 220.0	 2	     1.1100	     0.9500;
	58	 2	 62.55	 120.57	 0.0	 0.0	 1	     1.1017	   -10.2562	 220.0	 2	     1.1100	     0.9500;
	59	 2	 15.06	 30.14	 0.0	 0.0	 1	     1.1017	   -10.2573	 220.0	 2	     1.1100	     0.9500;
	60	 2	 30.11	 50.24	 0.0	 0.0	 1	     1.0500	    -8.4000	 400.0	 2	     1.0500	     0.9500;
	61	 2	 30.11	 50.24	 0.0	 0.0	 1	     1.0500	    -8.3931	 400.0	 2	     1.0500	     0.9500;
	62	 1	 0.00	 0.00	 0.0	 0.0	 1	     1.0942	    -9.6337	 220.0	 2	     1.1100	     0.9500;
	63	 1	 0.00	 0.00	 0.0	 0.0	 1	     1.0449	   -12.9663	 400.0	 2	     1.0500	     0.9500;
	64	 1	 0.00	 0.00	 0.0	 0.0	 1	     1.0449	   -12.9674	 400.0	 2	     1.0500	     0.9500;
	65	 1	 0.00	 0.00	 0.0	 0.0	 1	     1.0478	    -9.9362	 400.0	 2	     1.0500	     0.9500;
	66	 1	 0.00	 0.00	 0.0	 0.0	 1	     1.0784	   -12.3945	 220.0	 2	     1.1100	     0.9500;
	67	 1	 0.00	 0.00	 0.0	 0.0	 1	     1.0784	   -12.3893	 220.0	 2	     1.1100	     0.9500;
	68	 1	 0.00	 0.00	 0.0	 0.0	 1	     1.0457	    -9.6318	 400.0	 2	     1.0500	     0.9500;
	69	 1	 0.00	 0.00	 0.0	 0.0	 1	     1.0457	    -9.6338	 400.0	 2	     1.0500	     0.9500;
	70	 2	 15.06	 30.14	 0.0	 0.0	 1	     1.1084	    -8.8777	 220.0	 2	     1.1100	     0.9500;
	71	 2	 15.06	 30.14	 0.0	 0.0	 1	     1.1084	    -8.8793	 220.0	 2	     1.1100	     0.9500;
	72	 2	 15.06	 30.14	 0.0	 0.0	 1	     1.0433	    -9.2651	 400.0	 2	     1.0500	     0.9500;
	73	 2	 30.11	 60.29	 0.0	 0.0	 1	     1.0433	    -9.2666	 400.0	 2	     1.0500	     0.9500;
	74	 2	 172.58	 60.29	 0.0	 0.0	 1	     1.0986	   -11.2035	 220.0	 2	     1.1100	     0.9500;
	75	 1	 33.59	 10.05	 0.0	 0.0	 1	     1.0986	   -11.2051	 220.0	 2	     1.1100	     0.9500;
	76	 1	 0.00	 0.00	 0.0	 0.0	 1	     1.0966	    -9.8001	 220.0	 2	     1.1100	     0.9500;
	77	 1	 0.00	 0.00	 0.0	 0.0	 1	     1.0966	    -9.7965	 220.0	 2	     1.1100	     0.9500;
	78	 1	 0.00	 0.00	 0.0	 0.0	 1	     1.0975	   -11.1747	 220.0	 2	     1.1100	     0.9500;
	79	 1	 0.00	 0.00	 0.0	 0.0	 1	     1.0975	   -11.1784	 220.0	 2	     1.1100	     0.9500;
	80	 1	 0.00	 0.00	 0.0	 0.0	 1	     1.0500	   -10.5942	 400.0	 2	     1.0500	     0.9500;
	81	 1	 0.00	 0.00	 0.0	 0.0	 1	     1.0500	   -10.6057	 400.0	 2	     1.0500	     0.9500;
	82	 1	 0.00	 0.00	 0.0	 0.0	 1	     1.1000	   -11.2316	 220.0	 2	     1.1100	     0.9500;
	83	 1	 0.00	 0.00	 0.0	 0.0	 1	     1.1007	   -11.1054	 220.0	 2	     1.1100	     0.9500;
	84	 1	 0.00	 0.00	 0.0	 0.0	 1	     1.0799	   -11.2126	 220.0	 2	     1.1100	     0.9500;
	85	 1	 0.00	 0.00	 0.0	 0.0	 1	     1.0935	    -3.5943	 220.0	 3	     1.1100	     0.9500;
	86	 1	 9.35	 0.00	 0.0	 0.0	 1	     1.0946	    -8.1864	 220.0	 3	     1.1100	     0.9500;
	87	 1	 8.18	 0.00	 0.0	 0.0	 1	     1.0946	    -8.1866	 220.0	 3	     1.1100	     0.9500;
	88	 1	 0.00	 0.00	 0.0	 0.0	 1	     1.0996	    -2.0000	 220.0	 3	     1.1100	     0.9500;
	89	 1	 0.00	 0.00	 0.0	 0.0	 1	     1.0997	    -1.9873	 220.0	 3	     1.1100	     0.9500;
	90	 1	 0.00	 0.00	 0.0	 0.0	 1	     1.1094	    -1.6043	 220.0	 3	     1.1100	     0.9500;
	91	 1	 0.00	 0.00	 0.0	 0.0	 1	     1.1095	    -1.6066	 220.0	 3	     1.1100	     0.9500;
	92	 1	 0.00	 0.00	 0.0	 0.0	 1	     1.0747	    -3.3766	 220.0	 3	     1.1100	     0.9500;
	93	 1	 0.00	 0.00	 0.0	 0.0	 1	     1.0744	    -3.3832	 220.0	 3	     1.1100	     0.9500;
	94	 2	 32.43	 70.33	 0.0	 0.0	 1	     1.1088	    -1.1645	 220.0	 3	     1.1100	     0.9500;
	95	 2	 48.65	 103.49	 0.0	 0.0	 1	     1.1100	    -0.7041	 220.0	 3	     1.1100	     0.9500;
	96	 1	 7.72	 -24.99	 0.0	 0.0	 1	     1.0959	    -2.1354	 220.0	 3	     1.1100	     0.9500;
	97	 1	 0.00	 0.00	 0.0	 0.0	 1	     1.0959	    -2.1364	 220.0	 3	     1.1100	     0.9500;
	98	 2	 37.06	 142.68	 0.0	 0.0	 1	     1.0500	    -3.7839	 400.0	 3	     1.0500	     0.9500;
	99	 1	 0.00	 0.00	 0.0	 0.0	 1	     1.0499	    -3.8114	 400.0	 3	     1.0500	     0.9500;
	100	 1	 0.00	 0.00	 0.0	 0.0	 1	     1.0601	    -5.3044	 220.0	 3	     1.1100	     0.9500;
	101	 1	 0.00	 0.00	 0.0	 0.0	 1	     1.1085	    -1.1045	 220.0	 3	     1.1100	     0.9500;
	102	 1	 0.00	 0.00	 0.0	 0.0	 1	     1.1085	    -1.1018	 220.0	 3	     1.1100	     0.9500;
	103	 1	 52.00	 7.94	 0.0	 0.0	 1	     1.0963	    -3.3605	 220.0	 3	     1.1100	     0.9500;
	104	 1	 0.00	 0.00	 0.0	 0.0	 1	     1.0963	    -3.3649	 220.0	 3	     1.1100	     0.9500;
	105	 1	 0.00	 0.00	 0.0	 0.0	 1	     1.1042	    -0.9698	 220.0	 3	     1.1100	     0.9500;
	106	 1	 0.00	 0.00	 0.0	 0.0	 1	     1.1042	    -0.9718	 220.0	 3	     1.1100	     0.9500;
	107	 1	 0.00	 0.00	 0.0	 0.0	 1	     1.1005	    -2.9515	 220.0	 3	     1.1100	     0.9500;
	108	 1	 0.00	 0.00	 0.0	 0.0	 1	     1.1005	    -2.9573	 220.0	 3	     1.1100	     0.9500;
	109	 1	 0.00	 0.00	 0.0	 0.0	 1	     1.0434	    -1.5458	 400.0	 3	     1.0500	     0.9500;
	110	 1	 0.00	 0.00	 0.0	 0.0	 1	     1.0434	    -1.5473	 400.0	 3	     1.0500	     0.9500;
	111	 1	 0.00	 0.00	 0.0	 0.0	 1	     1.1068	    -0.8104	 220.0	 3	     1.1100	     0.9500;
	112	 1	 0.00	 0.00	 0.0	 0.0	 1	     1.1069	    -0.8089	 220.0	 3	     1.1100	     0.9500;
	113	 1	 0.00	 0.00	 0.0	 0.0	 1	     1.0811	    -2.7424	 220.0	 3	     1.1100	     0.9500;
	114	 1	 0.00	 0.00	 0.0	 0.0	 1	     1.0810	    -2.7552	 220.0	 3	     1.1100	     0.9500;
	115	 2	 33.85	 18.51	 0.0	 0.0	 1	     1.1009	    -2.2424	 220.0	 3	     1.1100	     0.9500;
	116	 1	 0.00	 0.00	 0.0	 0.0	 1	     1.1008	    -2.2548	 220.0	 3	     1.1100	     0.9500;
	117	 1	 0.00	 0.00	 0.0	 0.0	 1	     1.0946	    -8.1675	 220.0	 3	     1.1100	     0.9500;
	118	 1	 0.00	 0.00	 0.0	 0.0	 1	     1.0946	    -8.1645	 220.0	 3	     1.1100	     0.9500;
	119	 1	 0.00	 0.00	 0.0	 0.0	 1	     1.0607	    -3.7046	 220.0	 3	     1.1100	     0.9500;
	120	 1	 0.00	 0.00	 0.0	 0.0	 1	     1.0607	    -3.7060	 220.0	 3	     1.1100	     0.9500;
	121	 2	 0.00	 0.00	 0.0	 0.0	 1	     1.1100	    -0.8149	 220.0	 3	     1.1100	     0.9500;
	122	 2	 11.59	 44.21	 0.0	 0.0	 1	     1.1100	    -0.8129	 220.0	 3	     1.1100	     0.9500;
	123	 2	 8.10	 18.09	 0.0	 0.0	 1	     1.1100	    -0.9014	 220.0	 3	     1.1100	     0.9500;
	124	 2	 9.27	 21.10	 0.0	 0.0	 1	     1.1100	    -0.8895	 220.0	 3	     1.1100	     0.9500;
	125	 1	 0.00	 0.00	 0.0	 0.0	 1	     1.0961	    -3.6595	 220.0	 3	     1.1100	     0.9500;
	126	 1	 82.47	 7.94	 0.0	 0.0	 1	     1.0962	    -3.6674	 220.0	 3	     1.1100	     0.9500;
	127	 1	 0.00	 0.00	 0.0	 0.0	 1	     1.0791	    -3.9800	 220.0	 3	     1.1100	     0.9500;
	128	 1	 0.00	 0.00	 0.0	 0.0	 1	     1.0892	    -1.6916	 220.0	 3	     1.1100	     0.9500;
	129	 1	 0.00	 0.00	 0.0	 0.0	 1	     1.0892	    -1.6937	 220.0	 3	     1.1100	     0.9500;
	130	 1	 0.00	 0.00	 0.0	 0.0	 1	     1.0945	    -2.2011	 220.0	 3	     1.1100	     0.9500;
	131	 1	 0.00	 0.00	 0.0	 0.0	 1	     1.0946	    -2.1929	 220.0	 3	     1.1100	     0.9500;
	132	 1	 0.00	 0.00	 0.0	 0.0	 1	     1.0414	    -4.6894	 400.0	 3	     1.0500	     0.9500;
	133	 1	 0.00	 0.00	 0.0	 0.0	 1	     1.0414	    -4.6894	 400.0	 3	     1.0500	     0.9500;
	134	 2	 0.00	 0.00	 0.0	 0.0	 1	     1.1076	    -1.7541	 220.0	 3	     1.1100	     0.9500;
	135	 2	 10.42	 20.10	 0.0	 0.0	 1	     1.1076	    -1.7566	 220.0	 3	     1.1100	     0.9500;
	136	 2	 6.95	 15.07	 0.0	 0.0	 1	     1.0927	    -3.2536	 220.0	 3	     1.1100	     0.9500;
	137	 1	 0.00	 0.00	 0.0	 0.0	 1	     1.0927	    -3.2651	 220.0	 3	     1.1100	     0.9500;
	138	 1	 0.00	 0.00	 0.0	 0.0	 1	     1.0477	   -10.4314	 400.0	 3	     1.0500	     0.9500;
	139	 1	 0.00	 0.00	 0.0	 0.0	 1	     1.0478	   -10.4335	 400.0	 3	     1.0500	     0.9500;
	140	 1	 0.00	 0.00	 0.0	 0.0	 1	     1.0500	    -5.2379	 400.0	 3	     1.0500	     0.9500;
	141	 1	 0.00	 0.00	 0.0	 0.0	 1	     1.0500	    -5.2363	 400.0	 3	     1.0500	     0.9500;
	142	 1	 0.00	 0.00	 0.0	 0.0	 1	     1.0765	    -4.2370	 220.0	 3	     1.1100	     0.9500;
	143	 1	 0.00	 0.00	 0.0	 0.0	 1	     1.0766	    -4.2345	 220.0	 3	     1.1100	     0.9500;
	144	 2	 21.14	 15.86	 0.0	 0.0	 1	     1.1099	    -0.4209	 220.0	 3	     1.1100	     0.9500;
	145	 2	 47.28	 43.07	 0.0	 0.0	 1	     1.1100	    -0.3976	 220.0	 3	     1.1100	     0.9500;
	146	 2	 32.43	 66.31	 0.0	 0.0	 1	     1.0397	    -3.7365	 400.0	 3	     1.0500	     0.9500;
	147	 1	 0.00	 0.00	 0.0	 0.0	 1	     1.0397	    -3.7355	 400.0	 3	     1.0500	     0.9500;
	148	 1	 0.00	 0.00	 0.0	 0.0	 1	     1.0950	    -3.4504	 220.0	 3	     1.1100	     0.9500;
	149	 1	 0.00	 0.00	 0.0	 0.0	 1	     1.0951	    -3.4433	 220.0	 3	     1.1100	     0.9500;
	150	 1	 0.00	 0.00	 0.0	 0.0	 1	     1.1097	    -0.8893	 220.0	 3	     1.1100	     0.9500;
	151	 1	 0.00	 0.00	 0.0	 0.0	 1	     1.0985	    -3.0680	 220.0	 3	     1.1100	     0.9500;
	152	 2	 0.00	 0.00	 0.0	 0.0	 1	     1.0747	    -3.3768	 220.0	 3	     1.1100	     0.9500;
	153	 2	 0.00	 0.00	 0.0	 0.0	 1	     1.0745	    -3.3834	 220.0	 3	     1.1100	     0.9500;
	154	 2	 9.04	 20.10	 0.0	 0.0	 1	     1.0886	   -12.2801	 220.0	 4	     1.1100	     0.9500;
	155	 2	 9.27	 20.10	 0.0	 0.0	 1	     1.0886	   -12.2918	 220.0	 4	     1.1100	     0.9500;
	156	 1	 0.00	 0.00	 0.0	 0.0	 1	     1.0635	   -13.6467	 220.0	 4	     1.1100	     0.9500;
	157	 1	 0.00	 0.00	 0.0	 0.0	 1	     1.0635	   -13.6482	 220.0	 4	     1.1100	     0.9500;
	158	 1	 0.00	 0.00	 0.0	 0.0	 1	     1.0549	   -15.4025	 220.0	 4	     1.1100	     0.9500;
	159	 1	 0.00	 0.00	 0.0	 0.0	 1	     1.0809	   -11.9306	 220.0	 4	     1.1100	     0.9500;
	160	 1	 0.00	 0.00	 0.0	 0.0	 1	     1.0808	   -11.9400	 220.0	 4	     1.1100	     0.9500;
	161	 1	 0.00	 0.00	 0.0	 0.0	 1	     1.0224	   -11.5635	 400.0	 4	     1.0500	     0.9500;
	162	 1	 0.00	 0.00	 0.0	 0.0	 1	     1.0223	   -11.5662	 400.0	 4	     1.0500	     0.9500;
	163	 1	 0.00	 0.00	 0.0	 0.0	 1	     1.0262	   -27.5795	 220.0	 4	     1.1100	     0.9500;
	164	 1	 0.00	 0.00	 0.0	 0.0	 1	     1.0771	   -34.4573	 220.0	 4	     1.1100	     0.9500;
	165	 1	 0.00	 0.00	 0.0	 0.0	 1	     1.0771	   -34.4573	 220.0	 4	     1.1100	     0.9500;
	166	 1	 0.00	 0.00	 0.0	 0.0	 1	     1.0717	   -29.9906	 220.0	 4	     1.1100	     0.9500;
	167	 1	 0.00	 0.00	 0.0	 0.0	 1	     1.0717	   -29.9906	 220.0	 4	     1.1100	     0.9500;
	168	 1	 0.00	 0.00	 0.0	 0.0	 1	     1.0543	   -15.6395	 220.0	 4	     1.1100	     0.9500;
	169	 2	 0.00	 0.00	 0.0	 0.0	 1	     1.0810	   -17.4391	 220.0	 4	     1.1100	     0.9500;
	170	 2	 0.00	 0.00	 0.0	 0.0	 1	     1.0810	   -17.4536	 220.0	 4	     1.1100	     0.9500;
	171	 1	 0.00	 0.00	 0.0	 0.0	 1	     1.1100	   -14.2548	 220.0	 4	     1.1100	     0.9500;
	172	 2	 13.90	 30.14	 0.0	 0.0	 1	     1.1041	   -32.3577	 220.0	 4	     1.1100	     0.9500;
	173	 2	 10.82	 2.43	 0.0	 0.0	 1	     1.1041	   -32.3581	 220.0	 4	     1.1100	     0.9500;
	174	 2	 13.90	 30.14	 0.0	 0.0	 1	     1.0361	   -29.5630	 400.0	 4	     1.0500	     0.9500;
	175	 2	 27.79	 60.29	 0.0	 0.0	 1	     1.0361	   -29.5591	 400.0	 4	     1.0500	     0.9500;
	176	 1	 0.00	 0.00	 0.0	 0.0	 1	     0.9948	   -26.4703	 220.0	 4	     1.1100	     0.9500;
	177	 1	 0.00	 0.00	 0.0	 0.0	 1	     0.9949	   -26.4788	 220.0	 4	     1.1100	     0.9500;
	178	 1	 0.00	 0.00	 0.0	 0.0	 1	     1.0483	   -21.8039	 220.0	 4	     1.1100	     0.9500;
	179	 1	 0.00	 0.00	 0.0	 0.0	 1	     1.0483	   -21.8080	 220.0	 4	     1.1100	     0.9500;
	180	 2	 30.11	 64.30	 0.0	 0.0	 1	     1.1100	    -8.1601	 220.0	 4	     1.1100	     0.9500;
	181	 2	 30.11	 64.30	 0.0	 0.0	 1	     1.1100	    -8.1681	 220.0	 4	     1.1100	     0.9500;
	182	 2	 30.11	 64.51	 0.0	 0.0	 1	     1.1100	    -8.1456	 220.0	 4	     1.1100	     0.9500;
	183	 2	 30.11	 64.51	 0.0	 0.0	 1	     1.0494	    -7.5233	 400.0	 4	     1.0500	     0.9500;
	184	 1	 0.00	 0.00	 0.0	 0.0	 1	     1.0494	    -7.5248	 400.0	 4	     1.0500	     0.9500;
	185	 1	 0.00	 0.00	 0.0	 0.0	 1	     1.0807	   -34.4927	 220.0	 4	     1.1100	     0.9500;
	186	 1	 0.00	 0.00	 0.0	 0.0	 1	     1.0807	   -34.4927	 220.0	 4	     1.1100	     0.9500;
	187	 1	 0.00	 0.00	 0.0	 0.0	 1	     1.0081	   -12.6487	 400.0	 4	     1.0500	     0.9500;
	188	 1	 0.00	 0.00	 0.0	 0.0	 1	     0.9789	   -18.4399	 400.0	 4	     1.0500	     0.9500;
	189	 1	 0.00	 0.00	 0.0	 0.0	 1	     1.0206	   -10.6742	 400.0	 4	     1.0500	     0.9500;
	190	 1	 0.00	 0.00	 0.0	 0.0	 1	     1.0206	   -10.6663	 400.0	 4	     1.0500	     0.9500;
	191	 2	 13.90	 30.14	 0.0	 0.0	 1	     1.0830	   -17.5859	 220.0	 4	     1.1100	     0.9500;
	192	 2	 16.90	 30.65	 0.0	 0.0	 1	     1.0827	   -17.6277	 220.0	 4	     1.1100	     0.9500;
	193	 2	 44.01	 64.30	 0.0	 0.0	 1	     1.0324	   -10.9984	 400.0	 4	     1.0500	     0.9500;
	194	 1	 0.00	 0.00	 0.0	 0.0	 1	     1.0142	   -34.1292	 220.0	 4	     1.1100	     0.9500;
	195	 1	 0.00	 0.00	 0.0	 0.0	 1	     1.0142	   -34.1342	 220.0	 4	     1.1100	     0.9500;
	196	 1	 0.00	 0.00	 0.0	 0.0	 1	     1.0765	   -34.5414	 220.0	 4	     1.1100	     0.9500;
	197	 1	 0.00	 0.00	 0.0	 0.0	 1	     1.0765	   -34.5425	 220.0	 4	     1.1100	     0.9500;
	198	 1	 0.00	 0.00	 0.0	 0.0	 1	     1.0206	   -28.7348	 220.0	 4	     1.1100	     0.9500;
	199	 1	 0.00	 0.00	 0.0	 0.0	 1	     1.0206	   -28.7266	 220.0	 4	     1.1100	     0.9500;
	200	 1	 0.00	 0.00	 0.0	 0.0	 1	     0.9803	   -30.3890	 400.0	 4	     1.0500	     0.9500;
...
];

%% generator data
%	bus	Pg	Qg	Qmax	Qmin	Vg	mBase	status	Pmax	Pmin	Pc1	Pc2	Qc1min	Qc1max	Qc2min	Qc2max	ramp_agc	ramp_10	ramp_30	ramp_q	apf
mpc.gen = [
	24	 180.0	 243.0	 291.6	 -291.6	 1.08673	 235.3	 1	 186	 55.0	 0.0	 0.0	 0.0	 0.0	 0.0	 0.0	 0.0	 0.0	 0.0	 0.0	 0.0; % NG
	25	 188.0	 -53.0	 124.0	 -115.0	 1.08668	 235.3	 1	 229	 67.5	 0.0	 0.0	 0.0	 0.0	 0.0	 0.0	 0.0	 0.0	 0.0	 0.0	 0.0; % NG
	37	 255.0	 114.0	 190.0	 -136.8	 1.11	 426.0	 1	 272	 120.0	 0.0	 0.0	 0.0	 0.0	 0.0	 0.0	 0.0	 0.0	 0.0	 0.0	 0.0; % NG
	37	 255.0	 114.0	 330.0	 -330.0	 1.11	 426.0	 1	 659	 120.0	 0.0	 0.0	 0.0	 0.0	 0.0	 0.0	 0.0	 0.0	 0.0	 0.0	 0.0; % COW
	38	 255.0	 47.0	 190.0	 -182.0	 1.11	 426.0	 1	 364	 120.0	 0.0	 0.0	 0.0	 0.0	 0.0	 0.0	 0.0	 0.0	 0.0	 0.0	 0.0; % NG
	38	 255.0	 47.0	 190.0	 -138.0	 1.11	 426.0	 1	 275	 120.0	 0.0	 0.0	 0.0	 0.0	 0.0	 0.0	 0.0	 0.0	 0.0	 0.0	 0.0; % NG
	39	 255.0	 112.0	 262.0	 -262.0	 1.11	 426.0	 1	 524	 120.0	 0.0	 0.0	 0.0	 0.0	 0.0	 0.0	 0.0	 0.0	 0.0	 0.0	 0.0; % COW
	40	 255.0	 81.0	 190.0	 -152.0	 1.04749	 426.0	 1	 303	 120.0	 0.0	 0.0	 0.0	 0.0	 0.0	 0.0	 0.0	 0.0	 0.0	 0.0	 0.0; % NG
	40	 255.0	 81.0	 195.0	 -195.0	 1.04749	 426.0	 1	 389	 120.0	 0.0	 0.0	 0.0	 0.0	 0.0	 0.0	 0.0	 0.0	 0.0	 0.0	 0.0; % NG
	40	 255.0	 81.0	 199.0	 -199.0	 1.04749	 426.0	 1	 398	 120.0	 0.0	 0.0	 0.0	 0.0	 0.0	 0.0	 0.0	 0.0	 0.0	 0.0	 0.0; % NG
	41	 255.0	 161.0	 190.0	 -193.2	 1.04746	 426.0	 1	 312	 120.0	 0.0	 0.0	 0.0	 0.0	 0.0	 0.0	 0.0	 0.0	 0.0	 0.0	 0.0; % NG
	41	 255.0	 161.0	 190.0	 -193.2	 1.04746	 426.0	 1	 312	 120.0	 0.0	 0.0	 0.0	 0.0	 0.0	 0.0	 0.0	 0.0	 0.0	 0.0	 0.0; % NG
	41	 255.0	 161.0	 192.0	 -193.2	 1.04746	 426.0	 1	 383	 120.0	 0.0	 0.0	 0.0	 0.0	 0.0	 0.0	 0.0	 0.0	 0.0	 0.0	 0.0; % NG
	57	 139.0	 9.0	 152.0	 -141.0	 1.10173	 235.0	 1	 281	 55.0	 0.0	 0.0	 0.0	 0.0	 0.0	 0.0	 0.0	 0.0	 0.0	 0.0	 0.0; % COW
	57	 154.0	 9.0	 157.0	 -157.0	 1.10173	 235.0	 1	 314	 62.5	 0.0	 0.0	 0.0	 0.0	 0.0	 0.0	 0.0	 0.0	 0.0	 0.0	 0.0; % NG
	58	 154.0	 152.0	 182.4	 -182.4	 1.10171	 235.0	 1	 226	 62.5	 0.0	 0.0	 0.0	 0.0	 0.0	 0.0	 0.0	 0.0	 0.0	 0.0	 0.0; % COW
	58	 0.0	 0.0	 149.0	 -77.0	 1.0	 235.0	 0	 154	 60.0	 0.0	 0.0	 0.0	 0.0	 0.0	 0.0	 0.0	 0.0	 0.0	 0.0	 0.0; % NG
	58	 139.0	 152.0	 219.0	 -219.0	 1.10171	 235.0	 1	 438	 55.0	 0.0	 0.0	 0.0	 0.0	 0.0	 0.0	 0.0	 0.0	 0.0	 0.0	 0.0; % NG
	59	 140.0	 284.0	 340.8	 -340.8	 1.10172	 235.0	 1	 251	 55.0	 0.0	 0.0	 0.0	 0.0	 0.0	 0.0	 0.0	 0.0	 0.0	 0.0	 0.0; % NG
	60	 478.0	 486.0	 583.2	 -583.2	 1.05	 588.0	 1	 605	 127.5	 0.0	 0.0	 0.0	 0.0	 0.0	 0.0	 0.0	 0.0	 0.0	 0.0	 0.0; % COW
	61	 395.0	 -232.0	 348.0	 -278.4	 1.05	 588.0	 1	 457	 125.0	 0.0	 0.0	 0.0	 0.0	 0.0	 0.0	 0.0	 0.0	 0.0	 0.0	 0.0; % NG
	70	 168.0	 -86.0	 114.0	 -114.0	 1.10839	 235.0	 1	 228	 64.5	 0.0	 0.0	 0.0	 0.0	 0.0	 0.0	 0.0	 0.0	 0.0	 0.0	 0.0; % NG
	71	 168.0	 14.0	 134.0	 -134.0	 1.10837	 235.0	 1	 268	 64.5	 0.0	 0.0	 0.0	 0.0	 0.0	 0.0	 0.0	 0.0	 0.0	 0.0	 0.0; % NG
	71	 0.0	 0.0	 99.0	 -36.0	 1.0	 235.0	 0	 72	 64.5	 0.0	 0.0	 0.0	 0.0	 0.0	 0.0	 0.0	 0.0	 0.0	 0.0	 0.0; % NG
	72	 0.0	 0.0	 105.0	 -30.0	 1.0	 235.0	 0	 60	 129.0	 0.0	 0.0	 0.0	 0.0	 0.0	 0.0	 0.0	 0.0	 0.0	 0.0	 0.0; % NG
	72	 183.0	 -15.0	 105.0	 -95.0	 1.04326	 235.0	 1	 189	 64.5	 0.0	 0.0	 0.0	 0.0	 0.0	 0.0	 0.0	 0.0	 0.0	 0.0	 0.0; % NG
	73	 180.0	 -135.0	 162.0	 -162.0	 1.04328	 235.0	 1	 194	 64.5	 0.0	 0.0	 0.0	 0.0	 0.0	 0.0	 0.0	 0.0	 0.0	 0.0	 0.0; % NG
	73	 180.0	 -135.0	 162.0	 -162.0	 1.04328	 235.0	 1	 257	 64.5	 0.0	 0.0	 0.0	 0.0	 0.0	 0.0	 0.0	 0.0	 0.0	 0.0	 0.0; % NG
	74	 36.0	 -102.0	 122.4	 -122.4	 1.09864	 120.0	 1	 75	 0.0	 0.0	 0.0	 0.0	 0.0	 0.0	 0.0	 0.0	 0.0	 0.0	 0.0	 0.0; % NG
	94	 150.0	 81.0	 131.0	 -107.0	 1.10879	 270.6	 1	 214	 62.5	 0.0	 0.0	 0.0	 0.0	 0.0	 0.0	 0.0	 0.0	 0.0	 0.0	 0.0; % NG
	94	 165.0	 81.0	 161.0	 -161.0	 1.10879	 270.6	 1	 322	 70.0	 0.0	 0.0	 0.0	 0.0	 0.0	 0.0	 0.0	 0.0	 0.0	 0.0	 0.0; % NG
	95	 154.0	 63.0	 131.0	 -112.0	 1.11	 270.6	 1	 224	 65.0	 0.0	 0.0	 0.0	 0.0	 0.0	 0.0	 0.0	 0.0	 0.0	 0.0	 0.0; % NG
	95	 149.0	 63.0	 131.0	 -102.0	 1.11	 270.6	 1	 204	 62.5	 0.0	 0.0	 0.0	 0.0	 0.0	 0.0	 0.0	 0.0	 0.0	 0.0	 0.0; % NG
	95	 154.0	 63.0	 138.0	 -138.0	 1.11	 270.6	 1	 276	 65.0	 0.0	 0.0	 0.0	 0.0	 0.0	 0.0	 0.0	 0.0	 0.0	 0.0	 0.0; % NG
	98	 238.0	 -3.0	 213.0	 -119.0	 1.05	 426.0	 1	 238	 110.0	 0.0	 0.0	 0.0	 0.0	 0.0	 0.0	 0.0	 0.0	 0.0	 0.0	 0.0; % NG
	98	 238.0	 -3.0	 264.0	 -264.0	 1.05	 435.3	 1	 528	 110.0	 0.0	 0.0	 0.0	 0.0	 0.0	 0.0	 0.0	 0.0	 0.0	 0.0	 0.0; % NG
	115	 24.0	 -66.0	 79.2	 -79.2	 1.10086	 12.0	 1	 33	 0.0	 0.0	 0.0	 0.0	 0.0	 0.0	 0.0	 0.0	 0.0	 0.0	 0.0	 0.0; % NG
	115	 24.0	 -66.0	 79.2	 -79.2	 1.10086	 6.0	 1	 58	 0.0	 0.0	 0.0	 0.0	 0.0	 0.0	 0.0	 0.0	 0.0	 0.0	 0.0	 0.0; % NG
	121	 0.0	 0.0	 120.0	 -93.0	 1.0	 270.6	 0	 186	 60.0	 0.0	 0.0	 0.0	 0.0	 0.0	 0.0	 0.0	 0.0	 0.0	 0.0	 0.0; % NG
	122	 147.0	 35.0	 120.0	 -89.0	 1.11	 270.6	 1	 178	 60.0	 0.0	 0.0	 0.0	 0.0	 0.0	 0.0	 0.0	 0.0	 0.0	 0.0	 0.0; % COW
	123	 94.0	 -96.0	 141.0	 -141.0	 1.10998	 150.0	 1	 281	 35.0	 0.0	 0.0	 0.0	 0.0	 0.0	 0.0	 0.0	 0.0	 0.0	 0.0	 0.0; % NG
	124	 94.0	 -50.0	 128.0	 -128.0	 1.11	 150.0	 1	 255	 35.0	 0.0	 0.0	 0.0	 0.0	 0.0	 0.0	 0.0	 0.0	 0.0	 0.0	 0.0; % NG
	134	 0.0	 0.0	 80.0	 -75.0	 1.0	 150.0	 0	 149	 35.0	 0.0	 0.0	 0.0	 0.0	 0.0	 0.0	 0.0	 0.0	 0.0	 0.0	 0.0; % COW
	135	 95.0	 -19.0	 80.0	 -51.0	 1.10756	 150.0	 1	 102	 35.0	 0.0	 0.0	 0.0	 0.0	 0.0	 0.0	 0.0	 0.0	 0.0	 0.0	 0.0; % NG
	136	 106.0	 67.0	 113.0	 -113.0	 1.09273	 117.5	 1	 226	 40.0	 0.0	 0.0	 0.0	 0.0	 0.0	 0.0	 0.0	 0.0	 0.0	 0.0	 0.0; % NG
	144	 158.0	 -15.0	 135.0	 -92.0	 1.10995	 270.6	 1	 184	 67.5	 0.0	 0.0	 0.0	 0.0	 0.0	 0.0	 0.0	 0.0	 0.0	 0.0	 0.0; % NG
	145	 157.0	 24.0	 297.0	 -297.0	 1.11	 270.6	 1	 593	 67.5	 0.0	 0.0	 0.0	 0.0	 0.0	 0.0	 0.0	 0.0	 0.0	 0.0	 0.0; % COW
	145	 157.0	 24.0	 140.0	 -82.0	 1.11	 270.6	 1	 164	 67.5	 0.0	 0.0	 0.0	 0.0	 0.0	 0.0	 0.0	 0.0	 0.0	 0.0	 0.0; % COW
	146	 158.0	 -111.0	 140.0	 -133.2	 1.03968	 270.6	 1	 191	 67.5	 0.0	 0.0	 0.0	 0.0	 0.0	 0.0	 0.0	 0.0	 0.0	 0.0	 0.0; % NG
	146	 158.0	 -111.0	 137.0	 -133.2	 1.03968	 270.6	 1	 199	 67.5	 0.0	 0.0	 0.0	 0.0	 0.0	 0.0	 0.0	 0.0	 0.0	 0.0	 0.0; % NG
	152	 0.0	 0.0	 72.0	 -72.0	 1.0	 150.0	 0	 143	 -135.0	 0.0	 0.0	 0.0	 0.0	 0.0	 0.0	 0.0	 0.0	 0.0	 0.0	 0.0; % NG
	152	 0.0	 0.0	 144.0	 -144.0	 1.0	 150.0	 0	 287	 -135.0	 0.0	 0.0	 0.0	 0.0	 0.0	 0.0	 0.0	 0.0	 0.0	 0.0	 0.0; % COW
	153	 0.0	 0.0	 79.0	 -79.0	 1.0	 150.0	 0	 158	 -135.0	 0.0	 0.0	 0.0	 0.0	 0.0	 0.0	 0.0	 0.0	 0.0	 0.0	 0.0; % NG
	153	 0.0	 0.0	 178.0	 -178.0	 1.0	 150.0	 0	 356	 -135.0	 0.0	 0.0	 0.0	 0.0	 0.0	 0.0	 0.0	 0.0	 0.0	 0.0	 0.0; % COW
	154	 116.0	 178.0	 213.6	 -213.6	 1.0886	 150.0	 1	 140	 47.0	 0.0	 0.0	 0.0	 0.0	 0.0	 0.0	 0.0	 0.0	 0.0	 0.0	 0.0; % NG
	155	 117.0	 86.0	 257.0	 -257.0	 1.0886	 150.0	 1	 514	 47.0	 0.0	 0.0	 0.0	 0.0	 0.0	 0.0	 0.0	 0.0	 0.0	 0.0	 0.0; % COW
	155	 0.0	 0.0	 85.0	 -63.0	 1.0	 150.0	 0	 126	 47.0	 0.0	 0.0	 0.0	 0.0	 0.0	 0.0	 0.0	 0.0	 0.0	 0.0	 0.0; % NG
	169	 0.0	 0.0	 25.0	 -14.0	 1.0	 51.4	 0	 28	 20.0	 0.0	 0.0	 0.0	 0.0	 0.0	 0.0	 0.0	 0.0	 0.0	 0.0	 0.0; % NG
	170	 0.0	 0.0	 90.0	 -15.0	 1.0	 150.0	 0	 22	 80.0	 0.0	 0.0	 0.0	 0.0	 0.0	 0.0	 0.0	 0.0	 0.0	 0.0	 0.0; % NG
	170	 0.0	 0.0	 61.0	 -61.0	 1.0	 51.4	 0	 121	 22.5	 0.0	 0.0	 0.0	 0.0	 0.0	 0.0	 0.0	 0.0	 0.0	 0.0	 0.0; % NG
	172	 138.0	 -7.0	 151.0	 -151.0	 1.10415	 252.4	 1	 302	 50.0	 0.0	 0.0	 0.0	 0.0	 0.0	 0.0	 0.0	 0.0	 0.0	 0.0	 0.0; % NG
	172	 0.0	 0.0	 176.0	 -176.0	 1.0	 237.5	 0	 351	 67.5	 0.0	 0.0	 0.0	 0.0	 0.0	 0.0	 0.0	 0.0	 0.0	 0.0	 0.0; % COW
	173	 0.0	 0.0	 111.0	 -21.0	 1.0	 237.5	 0	 22	 135.0	 0.0	 0.0	 0.0	 0.0	 0.0	 0.0	 0.0	 0.0	 0.0	 0.0	 0.0; % NG
	173	 0.0	 0.0	 102.0	 -15.0	 1.0	 252.4	 0	 4	 90.0	 0.0	 0.0	 0.0	 0.0	 0.0	 0.0	 0.0	 0.0	 0.0	 0.0	 0.0; % NG
	174	 136.0	 29.0	 212.0	 -212.0	 1.03614	 252.4	 1	 424	 45.0	 0.0	 0.0	 0.0	 0.0	 0.0	 0.0	 0.0	 0.0	 0.0	 0.0	 0.0; % NG
	175	 136.0	 46.0	 140.0	 -140.0	 1.03615	 252.4	 1	 279	 45.0	 0.0	 0.0	 0.0	 0.0	 0.0	 0.0	 0.0	 0.0	 0.0	 0.0	 0.0; % COW
	175	 146.0	 46.0	 153.0	 -153.0	 1.03615	 252.4	 1	 306	 50.0	 0.0	 0.0	 0.0	 0.0	 0.0	 0.0	 0.0	 0.0	 0.0	 0.0	 0.0; % NG
	180	 136.0	 69.0	 291.0	 -291.0	 1.11	 287.3	 1	 581	 52.0	 0.0	 0.0	 0.0	 0.0	 0.0	 0.0	 0.0	 0.0	 0.0	 0.0	 0.0; % COW
	180	 136.0	 69.0	 127.0	 -124.0	 1.11	 287.3	 1	 247	 52.0	 0.0	 0.0	 0.0	 0.0	 0.0	 0.0	 0.0	 0.0	 0.0	 0.0	 0.0; % NG
	181	 153.0	 61.0	 156.0	 -156.0	 1.11	 238.4	 1	 312	 60.0	 0.0	 0.0	 0.0	 0.0	 0.0	 0.0	 0.0	 0.0	 0.0	 0.0	 0.0; % NG
	181	 137.0	 61.0	 127.0	 -92.0	 1.11	 287.3	 1	 184	 52.0	 0.0	 0.0	 0.0	 0.0	 0.0	 0.0	 0.0	 0.0	 0.0	 0.0	 0.0; % NG
	182	 126.0	 30.0	 145.0	 -67.0	 1.11	 263.9	 1	 133	 47.0	 0.0	 0.0	 0.0	 0.0	 0.0	 0.0	 0.0	 0.0	 0.0	 0.0	 0.0; % NG
	182	 126.0	 30.0	 145.0	 -88.0	 1.11	 263.9	 1	 176	 47.0	 0.0	 0.0	 0.0	 0.0	 0.0	 0.0	 0.0	 0.0	 0.0	 0.0	 0.0; % NG
	183	 151.0	 57.0	 103.0	 -93.0	 1.0494	 238.4	 1	 186	 60.0	 0.0	 0.0	 0.0	 0.0	 0.0	 0.0	 0.0	 0.0	 0.0	 0.0	 0.0; % NG
	183	 151.0	 57.0	 167.0	 -167.0	 1.0494	 238.4	 1	 333	 60.0	 0.0	 0.0	 0.0	 0.0	 0.0	 0.0	 0.0	 0.0	 0.0	 0.0	 0.0; % NG
	191	 182.0	 425.0	 510.0	 -510.0	 1.08298	 233.2	 1	 199	 75.0	 0.0	 0.0	 0.0	 0.0	 0.0	 0.0	 0.0	 0.0	 0.0	 0.0	 0.0; % NG
	192	 187.0	 388.0	 465.6	 -465.6	 1.08268	 233.2	 1	 614	 75.0	 0.0	 0.0	 0.0	 0.0	 0.0	 0.0	 0.0	 0.0	 0.0	 0.0	 0.0; % COW
	192	 0.0	 0.0	 177.0	 -177.0	 1.0	 233.2	 0	 353	 72.5	 0.0	 0.0	 0.0	 0.0	 0.0	 0.0	 0.0	 0.0	 0.0	 0.0	 0.0; % NG
	192	 0.0	 0.0	 125.0	 -125.0	 1.0	 233.2	 0	 249	 72.5	 0.0	 0.0	 0.0	 0.0	 0.0	 0.0	 0.0	 0.0	 0.0	 0.0	 0.0; % NG
	193	 237.0	 69.0	 294.0	 -259.0	 1.03244	 464.0	 1	 250	 104.0	 0.0	 0.0	 0.0	 0.0	 0.0	 0.0	 0.0	 0.0	 0.0	 0.0	 0.0; % NG
	208	 119.0	 73.0	 100.0	 -87.6	 1.06751	 218.3	 1	 121	 38.0	 0.0	 0.0	 0.0	 0.0	 0.0	 0.0	 0.0	 0.0	 0.0	 0.0	 0.0; % NG
	240	 0.0	 122.0	 146.4	 -146.4	 1.02222	 209.0	 1	 8	 -200.0	 0.0	 0.0	 0.0	 0.0	 0.0	 0.0	 0.0	 0.0	 0.0	 0.0	 0.0; % NG
	240	 0.0	 122.0	 146.4	 -146.4	 1.02222	 209.0	 1	 178	 -200.0	 0.0	 0.0	 0.0	 0.0	 0.0	 0.0	 0.0	 0.0	 0.0	 0.0	 0.0; % NG
	240	 0.0	 0.0	 160.0	 -100.0	 1.0	 209.0	 0	 64	 -200.0	 0.0	 0.0	 0.0	 0.0	 0.0	 0.0	 0.0	 0.0	 0.0	 0.0	 0.0; % NG
	241	 20.0	 40.0	 160.0	 -100.0	 1.02222	 209.0	 1	 60	 -200.0	 0.0	 0.0	 0.0	 0.0	 0.0	 0.0	 0.0	 0.0	 0.0	 0.0	 0.0; % NG
	244	 149.0	 17.0	 100.0	 -76.0	 1.11	 177.1	 1	 151	 56.25	 0.0	 0.0	 0.0	 0.0	 0.0	 0.0	 0.0	 0.0	 0.0	 0.0	 0.0; % NG
	254	 44.0	 26.0	 31.2	 -31.2	 1.10528	 78.8	 1	 50	 11.5	 0.0	 0.0	 0.0	 0.0	 0.0	 0.0	 0.0	 0.0	 0.0	 0.0	 0.0; % NG
	254	 46.0	 26.0	 37.0	 -37.0	 1.10528	 68.8	 1	 73	 12.5	 0.0	 0.0	 0.0	 0.0	 0.0	 0.0	 0.0	 0.0	 0.0	 0.0	 0.0; % NG
	254	 46.0	 26.0	 57.0	 -57.0	 1.10528	 68.8	 1	 114	 12.5	 0.0	 0.0	 0.0	 0.0	 0.0	 0.0	 0.0	 0.0	 0.0	 0.0	 0.0; % NG
	254	 28.0	 26.0	 31.2	 -31.2	 1.10528	 27.6	 1	 44	 3.5	 0.0	 0.0	 0.0	 0.0	 0.0	 0.0	 0.0	 0.0	 0.0	 0.0	 0.0; % NG
	267	 23.0	 -7.0	 56.0	 -56.0	 1.05826	 0.7	 1	 111	 0.225	 0.0	 0.0	 0.0	 0.0	 0.0	 0.0	 0.0	 0.0	 0.0	 0.0	 0.0; % PEL
	268	 40.0	 -8.0	 31.0	 -31.0	 1.07506	 0.7	 1	 61	 0.225	 0.0	 0.0	 0.0	 0.0	 0.0	 0.0	 0.0	 0.0	 0.0	 0.0	 0.0; % PEL
	278	 0.0	 0.0	 52.0	 -52.0	 1.0	 10.3	 0	 104	 2.925	 0.0	 0.0	 0.0	 0.0	 0.0	 0.0	 0.0	 0.0	 0.0	 0.0	 0.0; % COW
	279	 0.0	 0.0	 15.0	 -15.0	 1.0	 10.3	 0	 29	 2.925	 0.0	 0.0	 0.0	 0.0	 0.0	 0.0	 0.0	 0.0	 0.0	 0.0	 0.0; % NG
	295	 2.0	 29.0	 34.8	 -34.8	 1.09445	 5.0	 1	 3	 0.5	 0.0	 0.0	 0.0	 0.0	 0.0	 0.0	 0.0	 0.0	 0.0	 0.0	 0.0; % NG
	295	 2.0	 29.0	 34.8	 -34.8	 1.09445	 5.0	 1	 7	 0.5	 0.0	 0.0	 0.0	 0.0	 0.0	 0.0	 0.0	 0.0	 0.0	 0.0	 0.0; % PEL
	295	 2.0	 29.0	 34.8	 -34.8	 1.09445	 5.0	 1	 5	 0.5	 0.0	 0.0	 0.0	 0.0	 0.0	 0.0	 0.0	 0.0	 0.0	 0.0	 0.0; % PEL
	295	 2.0	 29.0	 34.8	 -34.8	 1.09445	 5.0	 1	 5	 0.5	 0.0	 0.0	 0.0	 0.0	 0.0	 0.0	 0.0	 0.0	 0.0	 0.0	 0.0; % PEL
	310	 255.0	 47.0	 190.0	 -138.0	 1.0	 426.0	 1	 276	 120.0	 0.0	 0.0	 0.0	 0.0	 0.0	 0.0	 0.0	 0.0	 0.0	 0.0	 0.0; % COW
	316	 0.0	 0.0	 33.0	 -33.0	 1.0	 4.0	 0	 66	 0.5	 0.0	 0.0	 0.0	 0.0	 0.0	 0.0	 0.0	 0.0	 0.0	 0.0	 0.0; % NG
	316	 0.0	 0.0	 35.0	 -35.0	 1.0	 4.0	 0	 70	 0.5	 0.0	 0.0	 0.0	 0.0	 0.0	 0.0	 0.0	 0.0	 0.0	 0.0	 0.0; % PEL
	376	 221.0	 -36.0	 128.0	 -128.0	 1.10193	 8.4	 1	 256	 2.7	 0.0	 0.0	 0.0	 0.0	 0.0	 0.0	 0.0	 0.0	 0.0	 0.0	 0.0; % PEL
	379	 25.0	 -8.0	 20.0	 -20.0	 1.11132	 0.9	 1	 39	 0.15	 0.0	 0.0	 0.0	 0.0	 0.0	 0.0	 0.0	 0.0	 0.0	 0.0	 0.0; % NG
	379	 25.0	 -8.0	 32.0	 -32.0	 1.11132	 0.9	 1	 63	 0.15	 0.0	 0.0	 0.0	 0.0	 0.0	 0.0	 0.0	 0.0	 0.0	 0.0	 0.0; % PEL
	379	 25.0	 -8.0	 33.0	 -33.0	 1.11132	 0.9	 1	 66	 0.15	 0.0	 0.0	 0.0	 0.0	 0.0	 0.0	 0.0	 0.0	 0.0	 0.0	 0.0; % PEL
	383	 43.0	 -4.0	 26.0	 -26.0	 1.11054	 31.3	 1	 51	 5.5	 0.0	 0.0	 0.0	 0.0	 0.0	 0.0	 0.0	 0.0	 0.0	 0.0	 0.0; % NG
	383	 43.0	 -4.0	 22.0	 -22.0	 1.11054	 39.0	 1	 43	 5.5	 0.0	 0.0	 0.0	 0.0	 0.0	 0.0	 0.0	 0.0	 0.0	 0.0	 0.0; % PEL
	383	 41.0	 -4.0	 93.0	 -93.0	 1.11054	 40.6	 1	 186	 4.5	 0.0	 0.0	 0.0	 0.0	 0.0	 0.0	 0.0	 0.0	 0.0	 0.0	 0.0; % COW
	384	 57.0	 -12.0	 47.0	 -47.0	 1.11743	 68.8	 1	 94	 10.0	 0.0	 0.0	 0.0	 0.0	 0.0	 0.0	 0.0	 0.0	 0.0	 0.0	 0.0; % NG
	384	 57.0	 -12.0	 102.0	 -102.0	 1.11743	 68.8	 1	 204	 10.0	 0.0	 0.0	 0.0	 0.0	 0.0	 0.0	 0.0	 0.0	 0.0	 0.0	 0.0; % NG
	385	 47.0	 7.0	 97.0	 -97.0	 1.11752	 48.5	 1	 193	 5.0	 0.0	 0.0	 0.0	 0.0	 0.0	 0.0	 0.0	 0.0	 0.0	 0.0	 0.0; % NG
	385	 57.0	 7.0	 31.0	 -31.0	 1.11752	 68.8	 1	 61	 10.0	 0.0	 0.0	 0.0	 0.0	 0.0	 0.0	 0.0	 0.0	 0.0	 0.0	 0.0; % PEL
	387	 58.0	 39.0	 97.0	 -97.0	 1.1113	 68.8	 1	 193	 12.5	 0.0	 0.0	 0.0	 0.0	 0.0	 0.0	 0.0	 0.0	 0.0	 0.0	 0.0; % COW
	387	 88.0	 39.0	 84.0	 -84.0	 1.1113	 147.0	 1	 168	 27.5	 0.0	 0.0	 0.0	 0.0	 0.0	 0.0	 0.0	 0.0	 0.0	 0.0	 0.0; % NG
	388	 98.0	 65.0	 78.0	 -78.0	 1.11386	 68.8	 1	 145	 12.5	 0.0	 0.0	 0.0	 0.0	 0.0	 0.0	 0.0	 0.0	 0.0	 0.0	 0.0; % COW
	399	 51.0	 15.0	 34.0	 -34.0	 1.10799	 3.8	 1	 67	 1.0	 0.0	 0.0	 0.0	 0.0	 0.0	 0.0	 0.0	 0.0	 0.0	 0.0	 0.0; % PEL
	433	 4.0	 -33.0	 39.6	 -39.6	 1.09946	 1.9	 1	 12	 0.675	 0.0	 0.0	 0.0	 0.0	 0.0	 0.0	 0.0	 0.0	 0.0	 0.0	 0.0; % PEL
	455	 146.0	 -10.0	 91.0	 -91.0	 1.11245	 68.8	 1	 182	 7.5	 0.0	 0.0	 0.0	 0.0	 0.0	 0.0	 0.0	 0.0	 0.0	 0.0	 0.0; % NG
	456	 110.0	 -3.0	 74.0	 -74.0	 1.11895	 68.8	 1	 148	 7.5	 0.0	 0.0	 0.0	 0.0	 0.0	 0.0	 0.0	 0.0	 0.0	 0.0	 0.0; % NG
	457	 113.0	 10.0	 176.0	 -176.0	 1.11707	 68.8	 1	 352	 7.5	 0.0	 0.0	 0.0	 0.0	 0.0	 0.0	 0.0	 0.0	 0.0	 0.0	 0.0; % NG
	457	 101.0	 10.0	 71.0	 -52.0	 1.11707	 87.5	 1	 104	 1.5	 0.0	 0.0	 0.0	 0.0	 0.0	 0.0	 0.0	 0.0	 0.0	 0.0	 0.0; % PEL
	458	 51.0	 -1.0	 110.0	 -110.0	 1.11493	 68.8	 1	 219	 7.5	 0.0	 0.0	 0.0	 0.0	 0.0	 0.0	 0.0	 0.0	 0.0	 0.0	 0.0; % NG
	458	 51.0	 -1.0	 57.0	 -42.0	 1.11493	 68.8	 1	 84	 7.5	 0.0	 0.0	 0.0	 0.0	 0.0	 0.0	 0.0	 0.0	 0.0	 0.0	 0.0; % NG
	478	 129.0	 -37.0	 137.0	 -102.0	 1.11867	 235.3	 1	 203	 60.0	 0.0	 0.0	 0.0	 0.0	 0.0	 0.0	 0.0	 0.0	 0.0	 0.0	 0.0; % NG
	478	 21.0	 -37.0	 51.0	 -51.0	 1.11867	 48.5	 1	 101	 6.0	 0.0	 0.0	 0.0	 0.0	 0.0	 0.0	 0.0	 0.0	 0.0	 0.0	 0.0; % PEL
	479	 50.0	 9.0	 81.0	 -81.0	 1.10485	 48.5	 1	 162	 5.0	 0.0	 0.0	 0.0	 0.0	 0.0	 0.0	 0.0	 0.0	 0.0	 0.0	 0.0; % NG
	482	 51.0	 -23.0	 27.6	 -27.6	 1.10618	 5.6	 1	 54	 1.8	 0.0	 0.0	 0.0	 0.0	 0.0	 0.0	 0.0	 0.0	 0.0	 0.0	 0.0; % PEL
	500	 29.0	 41.0	 49.2	 -49.2	 1.09306	 0.4	 1	 29	 0.0	 0.0	 0.0	 0.0	 0.0	 0.0	 0.0	 0.0	 0.0	 0.0	 0.0	 0.0; % PEL
	522	 135.0	 -1.0	 125.0	 -125.0	 1.10119	 8.4	 1	 250	 1.5	 0.0	 0.0	 0.0	 0.0	 0.0	 0.0	 0.0	 0.0	 0.0	 0.0	 0.0; % PEL
	527	 31.0	 -26.0	 44.0	 -44.0	 1.11076	 4.6	 1	 88	 1.395	 0.0	 0.0	 0.0	 0.0	 0.0	 0.0	 0.0	 0.0	 0.0	 0.0	 0.0; % PEL
	532	 43.0	 -13.0	 28.0	 -28.0	 1.10157	 6.5	 1	 56	 0.5	 0.0	 0.0	 0.0	 0.0	 0.0	 0.0	 0.0	 0.0	 0.0	 0.0	 0.0; % NG
	532	 43.0	 -13.0	 33.0	 -33.0	 1.10157	 6.5	 1	 66	 0.5	 0.0	 0.0	 0.0	 0.0	 0.0	 0.0	 0.0	 0.0	 0.0	 0.0	 0.0; % PEL
	532	 43.0	 -13.0	 24.0	 -24.0	 1.10157	 6.5	 1	 48	 0.5	 0.0	 0.0	 0.0	 0.0	 0.0	 0.0	 0.0	 0.0	 0.0	 0.0	 0.0; % PEL
	543	 29.0	 -11.0	 15.0	 -15.0	 1.06077	 4.1	 1	 29	 1.215	 0.0	 0.0	 0.0	 0.0	 0.0	 0.0	 0.0	 0.0	 0.0	 0.0	 0.0; % PEL
	572	 0.0	 0.0	 16.0	 -16.0	 1.0	 4.6	 0	 32	 1.44	 0.0	 0.0	 0.0	 0.0	 0.0	 0.0	 0.0	 0.0	 0.0	 0.0	 0.0; % PEL
	597	 27.0	 -20.0	 26.0	 -26.0	 1.08723	 1.9	 1	 52	 0.5	 0.0	 0.0	 0.0	 0.0	 0.0	 0.0	 0.0	 0.0	 0.0	 0.0	 0.0; % PEL
	597	 0.0	 0.0	 4.0	 -4.0	 1.0	 1.9	 0	 8	 0.5	 0.0	 0.0	 0.0	 0.0	 0.0	 0.0	 0.0	 0.0	 0.0	 0.0	 0.0; % PEL
	603	 147.0	 18.0	 189.0	 -189.0	 1.11189	 5.6	 1	 378	 1.5	 0.0	 0.0	 0.0	 0.0	 0.0	 0.0	 0.0	 0.0	 0.0	 0.0	 0.0; % NG
	670	 58.0	 17.0	 49.0	 -49.0	 1.11956	 62.5	 1	 97	 18.5	 0.0	 0.0	 0.0	 0.0	 0.0	 0.0	 0.0	 0.0	 0.0	 0.0	 0.0; % NG
	670	 31.0	 17.0	 38.0	 -38.0	 1.11956	 37.5	 1	 75	 5.0	 0.0	 0.0	 0.0	 0.0	 0.0	 0.0	 0.0	 0.0	 0.0	 0.0	 0.0; % NG
	670	 71.0	 17.0	 85.0	 -36.0	 1.11956	 150.0	 1	 71	 25.0	 0.0	 0.0	 0.0	 0.0	 0.0	 0.0	 0.0	 0.0	 0.0	 0.0	 0.0; % NG
	670	 71.0	 17.0	 122.0	 -122.0	 1.11956	 150.0	 1	 243	 25.0	 0.0	 0.0	 0.0	 0.0	 0.0	 0.0	 0.0	 0.0	 0.0	 0.0	 0.0; % COW
	671	 42.0	 17.0	 63.0	 -63.0	 1.12	 37.5	 1	 125	 5.0	 0.0	 0.0	 0.0	 0.0	 0.0	 0.0	 0.0	 0.0	 0.0	 0.0	 0.0; % PEL
	671	 42.0	 17.0	 58.0	 -58.0	 1.12	 37.5	 1	 116	 5.0	 0.0	 0.0	 0.0	 0.0	 0.0	 0.0	 0.0	 0.0	 0.0	 0.0	 0.0; % NG
	671	 42.0	 17.0	 26.0	 -26.0	 1.12	 37.5	 1	 52	 5.0	 0.0	 0.0	 0.0	 0.0	 0.0	 0.0	 0.0	 0.0	 0.0	 0.0	 0.0; % NG
	671	 100.0	 17.0	 176.0	 -176.0	 1.12	 150.0	 1	 352	 34.0	 0.0	 0.0	 0.0	 0.0	 0.0	 0.0	 0.0	 0.0	 0.0	 0.0	 0.0; % NG
	671	 82.0	 17.0	 89.0	 -89.0	 1.12	 150.0	 1	 178	 25.0	 0.0	 0.0	 0.0	 0.0	 0.0	 0.0	 0.0	 0.0	 0.0	 0.0	 0.0; % NG
	692	 252.0	 -31.0	 146.0	 -146.0	 1.09872	 1.9	 1	 292	 0.63	 0.0	 0.0	 0.0	 0.0	 0.0	 0.0	 0.0	 0.0	 0.0	 0.0	 0.0; % PEL
	694	 8.0	 52.0	 62.4	 -62.4	 1.08197	 3.8	 1	 18	 0.0	 0.0	 0.0	 0.0	 0.0	 0.0	 0.0	 0.0	 0.0	 0.0	 0.0	 0.0; % PEL
	700	 46.0	 -35.0	 60.0	 -60.0	 1.11463	 37.5	 1	 119	 4.5	 0.0	 0.0	 0.0	 0.0	 0.0	 0.0	 0.0	 0.0	 0.0	 0.0	 0.0; % NG
	700	 46.0	 -35.0	 42.0	 -42.0	 1.11463	 37.5	 1	 70	 4.5	 0.0	 0.0	 0.0	 0.0	 0.0	 0.0	 0.0	 0.0	 0.0	 0.0	 0.0; % PEL
	701	 35.0	 40.0	 48.0	 -48.0	 1.11138	 37.5	 1	 87	 4.5	 0.0	 0.0	 0.0	 0.0	 0.0	 0.0	 0.0	 0.0	 0.0	 0.0	 0.0; % PEL
	701	 35.0	 40.0	 63.0	 -63.0	 1.11138	 37.5	 1	 125	 4.5	 0.0	 0.0	 0.0	 0.0	 0.0	 0.0	 0.0	 0.0	 0.0	 0.0	 0.0; % NG
	701	 35.0	 40.0	 48.0	 -48.0	 1.11138	 37.5	 1	 65	 4.5	 0.0	 0.0	 0.0	 0.0	 0.0	 0.0	 0.0	 0.0	 0.0	 0.0	 0.0; % PEL
	701	 56.0	 40.0	 73.0	 -73.0	 1.11138	 121.3	 1	 145	 15.0	 0.0	 0.0	 0.0	 0.0	 0.0	 0.0	 0.0	 0.0	 0.0	 0.0	 0.0; % NG
	702	 55.0	 37.0	 126.0	 -126.0	 1.11468	 37.5	 1	 252	 4.5	 0.0	 0.0	 0.0	 0.0	 0.0	 0.0	 0.0	 0.0	 0.0	 0.0	 0.0; % NG
	702	 55.0	 37.0	 89.0	 -89.0	 1.11468	 37.5	 1	 177	 4.5	 0.0	 0.0	 0.0	 0.0	 0.0	 0.0	 0.0	 0.0	 0.0	 0.0	 0.0; % NG
	702	 55.0	 37.0	 44.4	 -44.4	 1.11468	 31.5	 1	 67	 4.5	 0.0	 0.0	 0.0	 0.0	 0.0	 0.0	 0.0	 0.0	 0.0	 0.0	 0.0; % NG
	735	 29.0	 -26.0	 34.0	 -34.0	 1.0952	 5.3	 1	 68	 0.5	 0.0	 0.0	 0.0	 0.0	 0.0	 0.0	 0.0	 0.0	 0.0	 0.0	 0.0; % COW
	735	 29.0	 -26.0	 37.0	 -37.0	 1.0952	 2.0	 1	 74	 0.5	 0.0	 0.0	 0.0	 0.0	 0.0	 0.0	 0.0	 0.0	 0.0	 0.0	 0.0; % PEL
	752	 144.0	 -37.0	 106.0	 -106.0	 1.09731	 5.8	 1	 211	 1.8	 0.0	 0.0	 0.0	 0.0	 0.0	 0.0	 0.0	 0.0	 0.0	 0.0	 0.0; % PEL
	766	 55.0	 -2.0	 80.0	 -80.0	 1.09745	 5.8	 1	 160	 0.0	 0.0	 0.0	 0.0	 0.0	 0.0	 0.0	 0.0	 0.0	 0.0	 0.0	 0.0; % PEL
	775	 63.0	 -59.0	 70.8	 -70.8	 1.09432	 4.0	 1	 70	 0.0	 0.0	 0.0	 0.0	 0.0	 0.0	 0.0	 0.0	 0.0	 0.0	 0.0	 0.0; % NG
	798	 41.0	 11.0	 30.0	 -22.0	 1.11549	 65.0	 1	 43	 0.0	 0.0	 0.0	 0.0	 0.0	 0.0	 0.0	 0.0	 0.0	 0.0	 0.0	 0.0; % NG
	798	 41.0	 11.0	 36.0	 -36.0	 1.11549	 65.0	 1	 71	 0.0	 0.0	 0.0	 0.0	 0.0	 0.0	 0.0	 0.0	 0.0	 0.0	 0.0	 0.0; % PEL
	801	 0.0	 0.0	 436.0	 -436.0	 1.0	 12.4	 0	 872	 0.0	 0.0	 0.0	 0.0	 0.0	 0.0	 0.0	 0.0	 0.0	 0.0	 0.0	 0.0; % COW
	808	 31.0	 -11.0	 23.0	 -23.0	 1.09831	 4.7	 1	 45	 0.0	 0.0	 0.0	 0.0	 0.0	 0.0	 0.0	 0.0	 0.0	 0.0	 0.0	 0.0; % NG
	809	 35.0	 -10.0	 44.0	 -44.0	 1.09858	 5.8	 1	 87	 0.0	 0.0	 0.0	 0.0	 0.0	 0.0	 0.0	 0.0	 0.0	 0.0	 0.0	 0.0; % NG
	846	 287.0	 47.0	 184.0	 -184.0	 1.12	 235.0	 1	 368	 65.0	 0.0	 0.0	 0.0	 0.0	 0.0	 0.0	 0.0	 0.0	 0.0	 0.0	 0.0; % NG
	847	 284.0	 53.0	 271.0	 -271.0	 1.12	 235.0	 1	 542	 55.0	 0.0	 0.0	 0.0	 0.0	 0.0	 0.0	 0.0	 0.0	 0.0	 0.0	 0.0; % COW
	854	 62.0	 -2.0	 50.0	 -50.0	 1.07804	 3.0	 1	 100	 0.0	 0.0	 0.0	 0.0	 0.0	 0.0	 0.0	 0.0	 0.0	 0.0	 0.0	 0.0; % PEL
	860	 24.0	 62.0	 74.4	 -74.4	 1.09667	 12.4	 1	 25	 0.0	 0.0	 0.0	 0.0	 0.0	 0.0	 0.0	 0.0	 0.0	 0.0	 0.0	 0.0; % COW
	870	 98.0	 42.0	 109.0	 -109.0	 1.11642	 167.6	 1	 218	 33.0	 0.0	 0.0	 0.0	 0.0	 0.0	 0.0	 0.0	 0.0	 0.0	 0.0	 0.0; % NG
	870	 66.0	 42.0	 50.4	 -50.4	 1.11642	 71.6	 1	 94	 17.0	 0.0	 0.0	 0.0	 0.0	 0.0	 0.0	 0.0	 0.0	 0.0	 0.0	 0.0; % NG
	876	 38.0	 66.0	 79.2	 -79.2	 1.10874	 8.3	 1	 132	 0.0	 0.0	 0.0	 0.0	 0.0	 0.0	 0.0	 0.0	 0.0	 0.0	 0.0	 0.0; % NG
	890	 48.0	 -17.0	 49.0	 -49.0	 1.1085	 5.6	 1	 97	 0.0	 0.0	 0.0	 0.0	 0.0	 0.0	 0.0	 0.0	 0.0	 0.0	 0.0	 0.0; % PEL
	893	 0.0	 0.0	 72.0	 -72.0	 1.0	 3.0	 0	 144	 0.0	 0.0	 0.0	 0.0	 0.0	 0.0	 0.0	 0.0	 0.0	 0.0	 0.0	 0.0; % NG
	908	 26.0	 14.0	 19.0	 -19.0	 1.10489	 3.0	 1	 38	 0.0	 0.0	 0.0	 0.0	 0.0	 0.0	 0.0	 0.0	 0.0	 0.0	 0.0	 0.0; % PEL
	913	 88.0	 29.0	 72.0	 -72.0	 1.06654	 0.0	 1	 143	 0.0	 0.0	 0.0	 0.0	 0.0	 0.0	 0.0	 0.0	 0.0	 0.0	 0.0	 0.0; % PEL
	918	 0.0	 0.0	 35.0	 -35.0	 1.0	 1.0	 0	 69	 0.0	 0.0	 0.0	 0.0	 0.0	 0.0	 0.0	 0.0	 0.0	 0.0	 0.0	 0.0; % PEL
	929	 0.0	 0.0	 67.0	 -67.0	 1.0	 2.1	 0	 134	 0.67	 0.0	 0.0	 0.0	 0.0	 0.0	 0.0	 0.0	 0.0	 0.0	 0.0	 0.0; % PEL
	934	 153.0	 8.0	 105.0	 -90.0	 1.11698	 235.0	 1	 180	 64.5	 0.0	 0.0	 0.0	 0.0	 0.0	 0.0	 0.0	 0.0	 0.0	 0.0	 0.0; % NG
	936	 41.0	 -28.0	 41.0	 -41.0	 1.09445	 36.8	 1	 81	 0.0	 0.0	 0.0	 0.0	 0.0	 0.0	 0.0	 0.0	 0.0	 0.0	 0.0	 0.0; % NG
	939	 0.0	 0.0	 8.0	 -8.0	 1.0	 2.8	 0	 16	 0.89	 0.0	 0.0	 0.0	 0.0	 0.0	 0.0	 0.0	 0.0	 0.0	 0.0	 0.0; % PEL
	959	 93.0	 19.0	 70.0	 -70.0	 1.10735	 100.8	 1	 140	 24.5	 0.0	 0.0	 0.0	 0.0	 0.0	 0.0	 0.0	 0.0	 0.0	 0.0	 0.0; % NG
	965	 0.0	 0.0	 26.0	 -26.0	 1.0	 1.7	 0	 51	 0.0	 0.0	 0.0	 0.0	 0.0	 0.0	 0.0	 0.0	 0.0	 0.0	 0.0	 0.0; % NG
	980	 57.0	 18.0	 35.0	 -35.0	 1.09905	 9.5	 1	 69	 0.0	 0.0	 0.0	 0.0	 0.0	 0.0	 0.0	 0.0	 0.0	 0.0	 0.0	 0.0; % PEL
	982	 0.0	 0.0	 34.0	 -34.0	 1.0	 1.6	 0	 67	 0.455	 0.0	 0.0	 0.0	 0.0	 0.0	 0.0	 0.0	 0.0	 0.0	 0.0	 0.0; % PEL
	984	 49.0	 33.0	 87.0	 -87.0	 1.1072	 5.9	 1	 173	 0.5	 0.0	 0.0	 0.0	 0.0	 0.0	 0.0	 0.0	 0.0	 0.0	 0.0	 0.0; % PEL
	989	 67.0	 -12.0	 35.0	 -35.0	 1.09313	 10.9	 1	 70	 0.0	 0.0	 0.0	 0.0	 0.0	 0.0	 0.0	 0.0	 0.0	 0.0	 0.0	 0.0; % NG
	993	 67.0	 14.0	 155.0	 -155.0	 1.10184	 52.0	 1	 310	 2.5	 0.0	 0.0	 0.0	 0.0	 0.0	 0.0	 0.0	 0.0	 0.0	 0.0	 0.0; % NG
	993	 0.0	 0.0	 55.0	 -55.0	 1.0	 52.0	 0	 109	 2.5	 0.0	 0.0	 0.0	 0.0	 0.0	 0.0	 0.0	 0.0	 0.0	 0.0	 0.0; % PEL
	993	 0.0	 0.0	 19.0	 -19.0	 1.0	 24.5	 0	 38	 -32.0	 0.0	 0.0	 0.0	 0.0	 0.0	 0.0	 0.0	 0.0	 0.0	 0.0	 0.0; % PEL
	993	 0.0	 0.0	 15.0	 -15.0	 1.0	 24.5	 0	 29	 -32.0	 0.0	 0.0	 0.0	 0.0	 0.0	 0.0	 0.0	 0.0	 0.0	 0.0	 0.0; % PEL
	1008	 0.0	 0.0	 29.0	 -29.0	 1.0	 69.0	 0	 57	 0.0	 0.0	 0.0	 0.0	 0.0	 0.0	 0.0	 0.0	 0.0	 0.0	 0.0	 0.0; % NG
	1008	 125.0	 -3.0	 149.0	 -149.0	 1.11496	 57.6	 1	 298	 46.0	 0.0	 0.0	 0.0	 0.0	 0.0	 0.0	 0.0	 0.0	 0.0	 0.0	 0.0; % COW
	1009	 140.0	 28.0	 232.0	 -232.0	 1.10191	 57.6	 1	 463	 42.0	 0.0	 0.0	 0.0	 0.0	 0.0	 0.0	 0.0	 0.0	 0.0	 0.0	 0.0; % COW
	1009	 0.0	 0.0	 172.0	 -172.0	 1.0	 40.0	 0	 344	 0.0	 0.0	 0.0	 0.0	 0.0	 0.0	 0.0	 0.0	 0.0	 0.0	 0.0	 0.0; % NG
	1021	 39.0	 -22.0	 26.4	 -26.4	 1.10219	 3.3	 1	 49	 0.0	 0.0	 0.0	 0.0	 0.0	 0.0	 0.0	 0.0	 0.0	 0.0	 0.0	 0.0; % PEL
	1049	 51.0	 -32.0	 40.0	 -40.0	 1.08347	 3.8	 1	 80	 1.115	 0.0	 0.0	 0.0	 0.0	 0.0	 0.0	 0.0	 0.0	 0.0	 0.0	 0.0; % PEL
...
];

%% generator cost data
%	2	startup	shutdown	n	c(n-1)	...	c0
mpc.gencost = [
	2	 0.0	 0.0	 3	   0.000000	   0.850011	   0.000000; % NG
	2	 0.0	 0.0	 3	   0.000000	   0.976596	   0.000000; % NG
	2	 0.0	 0.0	 3	   0.000000	   1.169047	   0.000000; % NG
	2	 0.0	 0.0	 3	   0.000000	   0.799009	   0.000000; % COW
	2	 0.0	 0.0	 3	   0.000000	   1.404585	   0.000000; % NG
	2	 0.0	 0.0	 3	   0.000000	   0.548552	   0.000000; % NG
	2	 0.0	 0.0	 3	   0.000000	   1.100269	   0.000000; % COW
	2	 0.0	 0.0	 3	   0.000000	   1.135755	   0.000000; % NG
	2	 0.0	 0.0	 3	   0.000000	   0.683910	   0.000000; % NG
	2	 0.0	 0.0	 3	   0.000000	   1.047787	   0.000000; % NG
	2	 0.0	 0.0	 3	   0.000000	   0.868128	   0.000000; % NG
	2	 0.0	 0.0	 3	   0.000000	   1.255116	   0.000000; % NG
	2	 0.0	 0.0	 3	   0.000000	   0.954916	   0.000000; % NG
	2	 0.0	 0.0	 3	   0.000000	   0.751213	   0.000000; % COW
	2	 0.0	 0.0	 3	   0.000000	   1.452139	   0.000000; % NG
	2	 0.0	 0.0	 3	   0.000000	   1.209647	   0.000000; % COW
	2	 0.0	 0.0	 3	   0.000000	   0.909553	   0.000000; % NG
	2	 0.0	 0.0	 3	   0.000000	   1.109872	   0.000000; % NG
	2	 0.0	 0.0	 3	   0.000000	   0.975250	   0.000000; % NG
	2	 0.0	 0.0	 3	   0.000000	   0.652537	   0.000000; % COW
	2	 0.0	 0.0	 3	   0.000000	   1.050297	   0.000000; % NG
	2	 0.0	 0.0	 3	   0.000000	   0.933931	   0.000000; % NG
	2	 0.0	 0.0	 3	   0.000000	   1.394396	   0.000000; % NG
	2	 0.0	 0.0	 3	   0.000000	   1.158953	   0.000000; % NG
	2	 0.0	 0.0	 3	   0.000000	   0.796433	   0.000000; % NG
	2	 0.0	 0.0	 3	   0.000000	   0.886573	   0.000000; % NG
	2	 0.0	 0.0	 3	   0.000000	   1.096459	   0.000000; % NG
	2	 0.0	 0.0	 3	   0.000000	   1.085266	   0.000000; % NG
	2	 0.0	 0.0	 3	   0.000000	   0.898952	   0.000000; % NG
	2	 0.0	 0.0	 3	   0.000000	   1.068293	   0.000000; % NG
	2	 0.0	 0.0	 3	   0.000000	   1.253755	   0.000000; % NG
	2	 0.0	 0.0	 3	   0.000000	   1.126999	   0.000000; % NG
	2	 0.0	 0.0	 3	   0.000000	   1.512606	   0.000000; % NG
	2	 0.0	 0.0	 3	   0.000000	   1.241583	   0.000000; % NG
	2	 0.0	 0.0	 3	   0.000000	   1.110293	   0.000000; % NG
	2	 0.0	 0.0	 3	   0.000000	   0.622450	   0.000000; % NG
	2	 0.0	 0.0	 3	   0.000000	   0.909508	   0.000000; % NG
	2	 0.0	 0.0	 3	   0.000000	   1.360360	   0.000000; % NG
	2	 0.0	 0.0	 3	   0.000000	   1.032527	   0.000000; % NG
	2	 0.0	 0.0	 3	   0.000000	   0.485404	   0.000000; % COW
	2	 0.0	 0.0	 3	   0.000000	   1.160612	   0.000000; % NG
	2	 0.0	 0.0	 3	   0.000000	   0.875762	   0.000000; % NG
	2	 0.0	 0.0	 3	   0.000000	   0.621992	   0.000000; % COW
	2	 0.0	 0.0	 3	   0.000000	   0.831887	   0.000000; % NG
	2	 0.0	 0.0	 3	   0.000000	   1.319526	   0.000000; % NG
	2	 0.0	 0.0	 3	   0.000000	   1.315621	   0.000000; % NG
	2	 0.0	 0.0	 3	   0.000000	   0.409092	   0.000000; % COW
	2	 0.0	 0.0	 3	   0.000000	   0.776603	   0.000000; % COW
	2	 0.0	 0.0	 3	   0.000000	   1.223741	   0.000000; % NG
	2	 0.0	 0.0	 3	   0.000000	   0.840436	   0.000000; % NG
	2	 0.0	 0.0	 3	   0.000000	   1.289051	   0.000000; % NG
	2	 0.0	 0.0	 3	   0.000000	   1.002768	   0.000000; % COW
	2	 0.0	 0.0	 3	   0.000000	   1.155320	   0.000000; % NG
	2	 0.0	 0.0	 3	   0.000000	   0.796576	   0.000000; % COW
	2	 0.0	 0.0	 3	   0.000000	   1.271459	   0.000000; % NG
	2	 0.0	 0.0	 3	   0.000000	   0.438192	   0.000000; % COW
	2	 0.0	 0.0	 3	   0.000000	   1.063218	   0.000000; % NG
	2	 0.0	 0.0	 3	   0.000000	   1.122928	   0.000000; % NG
	2	 0.0	 0.0	 3	   0.000000	   0.977004	   0.000000; % NG
	2	 0.0	 0.0	 3	   0.000000	   0.893429	   0.000000; % NG
	2	 0.0	 0.0	 3	   0.000000	   1.016665	   0.000000; % NG
	2	 0.0	 0.0	 3	   0.000000	   0.974620	   0.000000; % COW
	2	 0.0	 0.0	 3	   0.000000	   1.314404	   0.000000; % NG
	2	 0.0	 0.0	 3	   0.000000	   1.344622	   0.000000; % NG
	2	 0.0	 0.0	 3	   0.000000	   1.583178	   0.000000; % NG
	2	 0.0	 0.0	 3	   0.000000	   1.353860	   0.000000; % COW
	2	 0.0	 0.0	 3	   0.000000	   0.945238	   0.000000; % NG
	2	 0.0	 0.0	 3	   0.000000	   1.121863	   0.000000; % COW
	2	 0.0	 0.0	 3	   0.000000	   1.142801	   0.000000; % NG
	2	 0.0	 0.0	 3	   0.000000	   0.818045	   0.000000; % NG
	2	 0.0	 0.0	 3	   0.000000	   1.210096	   0.000000; % NG
	2	 0.0	 0.0	 3	   0.000000	   0.721146	   0.000000; % NG
	2	 0.0	 0.0	 3	   0.000000	   1.021851	   0.000000; % NG
	2	 0.0	 0.0	 3	   0.000000	   0.961252	   0.000000; % NG
	2	 0.0	 0.0	 3	   0.000000	   1.334007	   0.000000; % NG
	2	 0.0	 0.0	 3	   0.000000	   1.405346	   0.000000; % NG
	2	 0.0	 0.0	 3	   0.000000	   0.320052	   0.000000; % COW
	2	 0.0	 0.0	 3	   0.000000	   0.939080	   0.000000; % NG
	2	 0.0	 0.0	 3	   0.000000	   0.984652	   0.000000; % NG
	2	 0.0	 0.0	 3	   0.000000	   0.882634	   0.000000; % NG
	2	 0.0	 0.0	 3	   0.000000	   0.918520	   0.000000; % NG
	2	 0.0	 0.0	 3	   0.000000	   1.379738	   0.000000; % NG
	2	 0.0	 0.0	 3	   0.000000	   0.381210	   0.000000; % NG
	2	 0.0	 0.0	 3	   0.000000	   1.193136	   0.000000; % NG
	2	 0.0	 0.0	 3	   0.000000	   1.086237	   0.000000; % NG
	2	 0.0	 0.0	 3	   0.000000	   0.889082	   0.000000; % NG
	2	 0.0	 0.0	 3	   0.000000	   0.927623	   0.000000; % NG
	2	 0.0	 0.0	 3	   0.000000	   0.869713	   0.000000; % NG
	2	 0.0	 0.0	 3	   0.000000	   1.547266	   0.000000; % NG
	2	 0.0	 0.0	 3	   0.000000	   1.125627	   0.000000; % NG
	2	 0.0	 0.0	 3	   0.000000	   6.677311	   0.000000; % PEL
	2	 0.0	 0.0	 3	   0.000000	   7.090327	   0.000000; % PEL
	2	 0.0	 0.0	 3	   0.000000	   0.781059	   0.000000; % COW
	2	 0.0	 0.0	 3	   0.000000	   0.916225	   0.000000; % NG
	2	 0.0	 0.0	 3	   0.000000	   0.801469	   0.000000; % NG
	2	 0.0	 0.0	 3	   0.000000	   6.442873	   0.000000; % PEL
	2	 0.0	 0.0	 3	   0.000000	   6.913207	   0.000000; % PEL
	2	 0.0	 0.0	 3	   0.000000	   6.830796	   0.000000; % PEL
	2	 0.0	 0.0	 3	   0.000000	   1.256628	   0.000000; % COW
	2	 0.0	 0.0	 3	   0.000000	   1.043227	   0.000000; % NG
	2	 0.0	 0.0	 3	   0.000000	   7.309670	   0.000000; % PEL
	2	 0.0	 0.0	 3	   0.000000	   7.369077	   0.000000; % PEL
	2	 0.0	 0.0	 3	   0.000000	   1.166159	   0.000000; % NG
	2	 0.0	 0.0	 3	   0.000000	   7.031599	   0.000000; % PEL
	2	 0.0	 0.0	 3	   0.000000	   6.853514	   0.000000; % PEL
	2	 0.0	 0.0	 3	   0.000000	   0.830242	   0.000000; % NG
	2	 0.0	 0.0	 3	   0.000000	   6.672436	   0.000000; % PEL
	2	 0.0	 0.0	 3	   0.000000	   0.744699	   0.000000; % COW
	2	 0.0	 0.0	 3	   0.000000	   0.738035	   0.000000; % NG
	2	 0.0	 0.0	 3	   0.000000	   1.204380	   0.000000; % NG
	2	 0.0	 0.0	 3	   0.000000	   1.164400	   0.000000; % NG
	2	 0.0	 0.0	 3	   0.000000	   6.829250	   0.000000; % PEL
	2	 0.0	 0.0	 3	   0.000000	   0.555989	   0.000000; % COW
	2	 0.0	 0.0	 3	   0.000000	   1.390518	   0.000000; % NG
	2	 0.0	 0.0	 3	   0.000000	   0.470185	   0.000000; % COW
	2	 0.0	 0.0	 3	   0.000000	   6.992631	   0.000000; % PEL
	2	 0.0	 0.0	 3	   0.000000	   7.011250	   0.000000; % PEL
	2	 0.0	 0.0	 3	   0.000000	   1.064200	   0.000000; % NG
	2	 0.0	 0.0	 3	   0.000000	   1.204127	   0.000000; % NG
	2	 0.0	 0.0	 3	   0.000000	   0.899665	   0.000000; % NG
	2	 0.0	 0.0	 3	   0.000000	   7.459123	   0.000000; % PEL
	2	 0.0	 0.0	 3	   0.000000	   1.134166	   0.000000; % NG
	2	 0.0	 0.0	 3	   0.000000	   1.027244	   0.000000; % NG
	2	 0.0	 0.0	 3	   0.000000	   1.053273	   0.000000; % NG
	2	 0.0	 0.0	 3	   0.000000	   6.663227	   0.000000; % PEL
	2	 0.0	 0.0	 3	   0.000000	   1.363311	   0.000000; % NG
	2	 0.0	 0.0	 3	   0.000000	   7.065990	   0.000000; % PEL
	2	 0.0	 0.0	 3	   0.000000	   6.648395	   0.000000; % PEL
	2	 0.0	 0.0	 3	   0.000000	   6.554500	   0.000000; % PEL
	2	 0.0	 0.0	 3	   0.000000	   7.022333	   0.000000; % PEL
	2	 0.0	 0.0	 3	   0.000000	   1.006014	   0.000000; % NG
	2	 0.0	 0.0	 3	   0.000000	   6.734715	   0.000000; % PEL
	2	 0.0	 0.0	 3	   0.000000	   6.802229	   0.000000; % PEL
	2	 0.0	 0.0	 3	   0.000000	   6.944065	   0.000000; % PEL
	2	 0.0	 0.0	 3	   0.000000	   7.277280	   0.000000; % PEL
	2	 0.0	 0.0	 3	   0.000000	   7.310820	   0.000000; % PEL
	2	 0.0	 0.0	 3	   0.000000	   6.875058	   0.000000; % PEL
	2	 0.0	 0.0	 3	   0.000000	   0.867740	   0.000000; % NG
	2	 0.0	 0.0	 3	   0.000000	   0.910026	   0.000000; % NG
	2	 0.0	 0.0	 3	   0.000000	   1.046084	   0.000000; % NG
	2	 0.0	 0.0	 3	   0.000000	   0.898319	   0.000000; % NG
	2	 0.0	 0.0	 3	   0.000000	   0.607697	   0.000000; % COW
	2	 0.0	 0.0	 3	   0.000000	   7.137221	   0.000000; % PEL
	2	 0.0	 0.0	 3	   0.000000	   1.166504	   0.000000; % NG
	2	 0.0	 0.0	 3	   0.000000	   1.053410	   0.000000; % NG
	2	 0.0	 0.0	 3	   0.000000	   0.908564	   0.000000; % NG
	2	 0.0	 0.0	 3	   0.000000	   1.237256	   0.000000; % NG
	2	 0.0	 0.0	 3	   0.000000	   6.853662	   0.000000; % PEL
	2	 0.0	 0.0	 3	   0.000000	   6.888435	   0.000000; % PEL
	2	 0.0	 0.0	 3	   0.000000	   1.135658	   0.000000; % NG
	2	 0.0	 0.0	 3	   0.000000	   6.577407	   0.000000; % PEL
	2	 0.0	 0.0	 3	   0.000000	   6.428540	   0.000000; % PEL
	2	 0.0	 0.0	 3	   0.000000	   1.127177	   0.000000; % NG
	2	 0.0	 0.0	 3	   0.000000	   6.998670	   0.000000; % PEL
	2	 0.0	 0.0	 3	   0.000000	   1.180683	   0.000000; % NG
	2	 0.0	 0.0	 3	   0.000000	   0.998836	   0.000000; % NG
	2	 0.0	 0.0	 3	   0.000000	   0.894327	   0.000000; % NG
	2	 0.0	 0.0	 3	   0.000000	   0.875266	   0.000000; % NG
	2	 0.0	 0.0	 3	   0.000000	   0.574340	   0.000000; % COW
	2	 0.0	 0.0	 3	   0.000000	   6.688709	   0.000000; % PEL
	2	 0.0	 0.0	 3	   0.000000	   6.949082	   0.000000; % PEL
	2	 0.0	 0.0	 3	   0.000000	   7.400364	   0.000000; % PEL
	2	 0.0	 0.0	 3	   0.000000	   1.351675	   0.000000; % NG
	2	 0.0	 0.0	 3	   0.000000	   1.123841	   0.000000; % NG
	2	 0.0	 0.0	 3	   0.000000	   6.248810	   0.000000; % PEL
	2	 0.0	 0.0	 3	   0.000000	   0.536419	   0.000000; % COW
	2	 0.0	 0.0	 3	   0.000000	   1.299648	   0.000000; % NG
	2	 0.0	 0.0	 3	   0.000000	   1.076164	   0.000000; % NG
	2	 0.0	 0.0	 3	   0.000000	   1.310778	   0.000000; % NG
	2	 0.0	 0.0	 3	   0.000000	   0.709388	   0.000000; % COW
	2	 0.0	 0.0	 3	   0.000000	   7.224500	   0.000000; % PEL
	2	 0.0	 0.0	 3	   0.000000	   0.466449	   0.000000; % COW
	2	 0.0	 0.0	 3	   0.000000	   1.444216	   0.000000; % NG
	2	 0.0	 0.0	 3	   0.000000	   1.333609	   0.000000; % NG
	2	 0.0	 0.0	 3	   0.000000	   0.795072	   0.000000; % NG
	2	 0.0	 0.0	 3	   0.000000	   6.945905	   0.000000; % PEL
	2	 0.0	 0.0	 3	   0.000000	   1.018782	   0.000000; % NG
	2	 0.0	 0.0	 3	   0.000000	   6.345114	   0.000000; % PEL
	2	 0.0	 0.0	 3	   0.000000	   6.866383	   0.000000; % PEL
	2	 0.0	 0.0	 3	   0.000000	   7.096282	   0.000000; % PEL
	2	 0.0	 0.0	 3	   0.000000	   6.849802	   0.000000; % PEL
	2	 0.0	 0.0	 3	   0.000000	   0.939746	   0.000000; % NG
	2	 0.0	 0.0	 3	   0.000000	   1.153855	   0.000000; % NG
	2	 0.0	 0.0	 3	   0.000000	   6.918329	   0.000000; % PEL
	2	 0.0	 0.0	 3	   0.000000	   0.674075	   0.000000; % NG
	2	 0.0	 0.0	 3	   0.000000	   1.512502	   0.000000; % NG
	2	 0.0	 0.0	 3	   0.000000	   7.075473	   0.000000; % PEL
	2	 0.0	 0.0	 3	   0.000000	   7.166425	   0.000000; % PEL
	2	 0.0	 0.0	 3	   0.000000	   6.540863	   0.000000; % PEL
	2	 0.0	 0.0	 3	   0.000000	   1.380025	   0.000000; % NG
	2	 0.0	 0.0	 3	   0.000000	   1.011495	   0.000000; % NG
	2	 0.0	 0.0	 3	   0.000000	   6.565873	   0.000000; % PEL
	2	 0.0	 0.0	 3	   0.000000	   6.498475	   0.000000; % PEL
	2	 0.0	 0.0	 3	   0.000000	   7.611306	   0.000000; % PEL
	2	 0.0	 0.0	 3	   0.000000	   0.996231	   0.000000; % NG
	2	 0.0	 0.0	 3	   0.000000	   0.758475	   0.000000; % COW
	2	 0.0	 0.0	 3	   0.000000	   0.674164	   0.000000; % COW
	2	 0.0	 0.0	 3	   0.000000	   0.646115	   0.000000; % NG
	2	 0.0	 0.0	 3	   0.000000	   6.927537	   0.000000; % PEL
	2	 0.0	 0.0	 3	   0.000000	   7.035663	   0.000000; % PEL
...
];

%% branch data
%	fbus	tbus	r	x	b	rateA	rateB	rateC	ratio	angle	status	angmin	angmax
mpc.branch = [
	9	 11	 0.00064	 0.0305	 0.0	 400.0	 400.0	 400.0	 1.10224	 0.0	 1	 -30.0	 30.0;
	13	 12	 0.00069	 0.03946	 0.0	 250.0	 250.0	 250.0	 0.9999	 0.0	 1	 -30.0	 30.0;
	21	 19	 0.00088	 0.05709	 0.0	 330.0	 330.0	 330.0	 0.9999	 0.0	 1	 -30.0	 30.0;
	36	 35	 0.0007	 0.03652	 0.0	 250.0	 250.0	 250.0	 0.9999	 0.0	 1	 -30.0	 30.0;
	37	 40	 0.00036	 0.02519	 0.0	 500.0	 500.0	 500.0	 1.0686	 0.0	 1	 -30.0	 30.0;
	38	 41	 0.00036	 0.02519	 0.0	 500.0	 500.0	 500.0	 1.08671	 0.0	 1	 -30.0	 30.0;
	55	 56	 0.00034	 0.02097	 0.0	 500.0	 500.0	 500.0	 1.0755	 0.0	 1	 -30.0	 30.0;
	59	 61	 0.00034	 0.02097	 0.0	 500.0	 500.0	 500.0	 1.05955	 0.0	 1	 -30.0	 30.0;
	70	 72	 0.00081	 0.03	 0.0	 400.0	 400.0	 400.0	 1.0876	 0.0	 1	 -30.0	 30.0;
	107	 109	 0.00075	 0.02445	 -0.00832	 330.0	 330.0	 330.0	 1.06467	 0.0	 1	 -30.0	 30.0;
	108	 110	 0.0004	 0.0253	 0.0	 500.0	 500.0	 500.0	 1.07013	 0.0	 1	 -30.0	 30.0;
	144	 147	 0.00053	 0.02875	 -0.016	 400.0	 400.0	 400.0	 1.07702	 0.0	 1	 -30.0	 30.0;
	173	 174	 0.00064	 0.0305	 0.0	 400.0	 400.0	 400.0	 1.06172	 0.0	 1	 -30.0	 30.0;
	182	 183	 0.00023	 0.023	 0.0	 500.0	 500.0	 500.0	 1.07426	 0.0	 1	 -30.0	 30.0;
	181	 184	 0.00023	 0.023	 0.0	 500.0	 500.0	 500.0	 1.07426	 0.0	 1	 -30.0	 30.0;
	188	 187	 0.00032	 0.04392	 0.0	 330.0	 330.0	 330.0	 0.9999	 0.0	 1	 -30.0	 30.0;
	191	 193	 0.0003	 0.02732	 0.0	 500.0	 500.0	 500.0	 1.10871	 0.0	 1	 -30.0	 30.0;
	198	 200	 0.00035	 0.02375	 0.0	 500.0	 500.0	 500.0	 1.07313	 0.0	 1	 -30.0	 30.0;
	212	 213	 0.00051	 0.0275	 0.0	 400.0	 400.0	 400.0	 1.10394	 0.0	 1	 -30.0	 30.0;
	217	 215	 0.00084	 0.06858	 0.0	 250.0	 250.0	 250.0	 0.9999	 0.0	 1	 -30.0	 30.0;
	220	 222	 0.00033	 0.02711	 0.0	 500.0	 500.0	 500.0	 1.08613	 0.0	 1	 -30.0	 30.0;
	224	 222	 0.00032	 0.0464	 0.0	 330.0	 330.0	 330.0	 0.9999	 0.0	 1	 -30.0	 30.0;
	231	 229	 0.00113	 0.05647	 0.0	 330.0	 330.0	 330.0	 0.9999	 0.0	 1	 -30.0	 30.0;
	228	 230	 0.00075	 0.02469	 -0.008	 330.0	 330.0	 330.0	 1.04544	 0.0	 1	 -30.0	 30.0;
	3010	 183	 0.00029	 0.00317	 0.09184	 772.0	 772.0	 772.0	 0.0	 0.0	 1	 -30.0	 30.0;
	3010	 184	 0.0003	 0.00326	 0.09536	 770.0	 770.0	 770.0	 0.0	 0.0	 1	 -30.0	 30.0;
	244	 84	 0.01475	 0.08595	 0.13036	 314.0	 314.0	 314.0	 0.0	 0.0	 1	 -30.0	 30.0;
	3007	 92	 0.01244	 0.06959	 0.1181	 308.0	 308.0	 308.0	 0.0	 0.0	 1	 -30.0	 30.0;
	3007	 122	 0.01207	 0.06905	 0.11519	 311.0	 311.0	 311.0	 0.0	 0.0	 1	 -30.0	 30.0;
	146	 3008	 0.00168	 0.01604	 0.51488	 723.0	 723.0	 723.0	 0.0	 0.0	 1	 -30.0	 30.0;
	3011	 172	 0.0018	 0.01616	 0.0484	 386.0	 386.0	 386.0	 0.0	 0.0	 1	 -30.0	 30.0;
	3011	 173	 0.0018	 0.01616	 0.0484	 386.0	 386.0	 386.0	 0.0	 0.0	 1	 -30.0	 30.0;
	3012	 63	 0.00223	 0.02209	 0.69011	 736.0	 736.0	 736.0	 0.0	 0.0	 1	 -30.0	 30.0;
	3012	 64	 0.00223	 0.02209	 0.69011	 736.0	 736.0	 736.0	 0.0	 0.0	 1	 -30.0	 30.0;
	99	 3006	 0.00293	 0.03054	 0.95472	 754.0	 754.0	 754.0	 0.0	 0.0	 1	 -30.0	 30.0;
	58	 30	 0.01174	 0.07014	 0.12689	 318.0	 318.0	 318.0	 0.0	 0.0	 1	 -30.0	 30.0;
	37	 107	 0.00919	 0.06614	 0.10451	 347.0	 347.0	 347.0	 0.0	 0.0	 1	 -30.0	 30.0;
	38	 108	 0.00822	 0.05767	 0.0982	 343.0	 343.0	 343.0	 0.0	 0.0	 1	 -30.0	 30.0;
	169	 42	 0.01698	 0.12459	 0.1957	 255.0	 255.0	 255.0	 0.0	 0.0	 1	 -30.0	 30.0;
	155	 48	 0.01298	 0.06738	 0.10284	 297.0	 297.0	 297.0	 0.0	 0.0	 1	 -30.0	 30.0;
	154	 27	 0.01068	 0.0475	 0.09495	 276.0	 276.0	 276.0	 0.0	 0.0	 1	 -30.0	 30.0;
	191	 28	 0.01436	 0.10729	 0.16081	 297.0	 297.0	 297.0	 0.0	 0.0	 1	 -30.0	 30.0;
	55	 126	 0.01488	 0.08161	 0.1148	 305.0	 305.0	 305.0	 0.0	 0.0	 1	 -30.0	 30.0;
	54	 108	 0.01116	 0.07171	 0.10367	 329.0	 329.0	 329.0	 0.0	 0.0	 1	 -30.0	 30.0;
	207	 100	 0.00552	 0.05948	 0.17077	 421.0	 421.0	 421.0	 0.0	 0.0	 1	 -30.0	 30.0;
	238	 192	 0.01118	 0.06597	 0.10778	 316.0	 316.0	 316.0	 0.0	 0.0	 1	 -30.0	 30.0;
	226	 191	 0.01682	 0.08909	 0.12993	 300.0	 300.0	 300.0	 0.0	 0.0	 1	 -30.0	 30.0;
	225	 192	 0.01384	 0.08702	 0.13484	 326.0	 326.0	 326.0	 0.0	 0.0	 1	 -30.0	 30.0;
	242	 195	 0.01517	 0.09938	 0.14492	 274.0	 274.0	 274.0	 0.0	 0.0	 1	 -30.0	 30.0;
	59	 16	 0.01347	 0.07316	 0.13418	 304.0	 304.0	 304.0	 0.0	 0.0	 1	 -30.0	 30.0;
	233	 25	 0.01403	 0.10413	 0.15949	 306.0	 306.0	 306.0	 0.0	 0.0	 1	 -30.0	 30.0;
	117	 70	 0.00374	 0.0438	 0.10096	 438.0	 438.0	 438.0	 0.0	 0.0	 1	 -30.0	 30.0;
	190	 99	 0.00194	 0.02007	 0.54307	 752.0	 752.0	 752.0	 0.0	 0.0	 1	 -30.0	 30.0;
	60	 12	 0.0015	 0.01506	 0.4032	 741.0	 741.0	 741.0	 0.0	 0.0	 1	 -30.0	 30.0;
	214	 174	 0.00296	 0.03484	 0.9296	 799.0	 799.0	 799.0	 0.0	 0.0	 1	 -30.0	 30.0;
	138	 72	 0.00169	 0.01931	 0.53814	 788.0	 788.0	 788.0	 0.0	 0.0	 1	 -30.0	 30.0;
	41	 110	 0.00137	 0.01569	 0.43744	 789.0	 789.0	 789.0	 0.0	 0.0	 1	 -30.0	 30.0;
	40	 141	 0.00234	 0.02677	 0.74653	 789.0	 789.0	 789.0	 0.0	 0.0	 1	 -30.0	 30.0;
...